pglib-opf-master/pglib_opf_case2383wp_k.m
%%%%%%%%%%%%%%%%%%%%%%%%%%%%%%%%%%%%%%%%%%%%%%%%%%%%%%%%%%%%%%%%%%%%%%%%%%%
%%%%                                                                  %%%%%
%%%%    IEEE PES Power Grid Library - Optimal Power Flow - v20.07     %%%%%
%%%%          (https://github.com/power-grid-lib/pglib-opf)           %%%%%
%%%%               Benchmark Group - Typical Operations               %%%%%
%%%%                         12 - July - 2020                         %%%%%
%%%%                                                                  %%%%%
%%%%%%%%%%%%%%%%%%%%%%%%%%%%%%%%%%%%%%%%%%%%%%%%%%%%%%%%%%%%%%%%%%%%%%%%%%%
%
%   Power flow data for Polish system - winter 1999-2000 peak.
%
%   This case represents the Polish 400, 220 and 110 kV networks during
%   winter 1999-2000 peak conditions. It is part of the 7500+ bus
%   Europen UCTE system. To decrease the number of buses, the tie lines
%   to foreign networks were replaced by artificial load or generator
%   buses (180-186). Multiple generators at a bus have been aggregated.
%   Generators that are not centrally dispatchable in the Polish energy
%   market are given a cost of zero.
%
%   Copyright (c) 2010 by Roman Korab <roman.korab@polsl.pl>
%   Licensed under the Creative Commons Attribution 4.0
%   International license, http://creativecommons.org/licenses/by/4.0/
%
function mpc = pglib_opf_case2383wp_k
mpc.version = '2';
mpc.baseMVA = 100.0;

%% bus data
%	bus_i	type	Pd	Qd	Gs	Bs	area	Vm	Va	baseKV	zone	Vmax	Vmin
mpc.bus = [
	1	 1	 0.0	 0.0	 0.0	 0.0	 1	    1.03000	    0.00000	 220.0	 1	    1.11000	    0.95000;
	2	 1	 0.0	 0.0	 0.0	 0.0	 1	    1.03000	    0.00000	 220.0	 1	    1.11000	    0.95000;
	3	 1	 0.0	 0.0	 0.0	 0.0	 1	    1.03000	    0.00000	 220.0	 1	    1.11000	    0.95000;
	4	 1	 0.0	 0.0	 0.0	 0.0	 1	    1.03000	    0.00000	 220.0	 1	    1.11000	    0.95000;
	5	 1	 0.0	 0.0	 0.0	 0.0	 1	    1.03000	    0.00000	 220.0	 1	    1.11000	    0.95000;
	6	 1	 0.0	 0.0	 0.0	 0.0	 1	    1.00000	    0.00000	 400.0	 1	    1.05000	    0.95000;
	7	 1	 0.0	 0.0	 0.0	 0.0	 1	    1.03000	    0.00000	 220.0	 1	    1.11000	    0.95000;
	8	 1	 0.0	 0.0	 0.0	 0.0	 1	    1.00000	    0.00000	 400.0	 1	    1.05000	    0.95000;
	9	 1	 0.0	 0.0	 0.0	 0.0	 1	    1.00000	    0.00000	 400.0	 1	    1.05000	    0.95000;
	10	 2	 12.23	 9.0	 0.0	 0.0	 1	    1.03000	    0.00000	 220.0	 1	    1.11000	    0.95000;
	11	 1	 0.0	 0.0	 0.0	 0.0	 1	    1.03000	    0.00000	 220.0	 1	    1.11000	    0.95000;
	12	 1	 0.0	 0.0	 0.0	 0.0	 1	    1.03000	    0.00000	 220.0	 1	    1.11000	    0.95000;
	13	 1	 0.0	 0.0	 0.0	 0.0	 1	    1.03000	    0.00000	 220.0	 1	    1.11000	    0.95000;
	14	 1	 0.0	 0.0	 0.0	 0.0	 1	    1.03000	    0.00000	 220.0	 1	    1.11000	    0.95000;
	15	 1	 0.0	 0.0	 0.0	 0.0	 1	    1.00000	    0.00000	 400.0	 1	    1.05000	    0.95000;
	16	 2	 54.88	 100.0	 0.0	 0.0	 1	    1.03000	    0.00000	 220.0	 1	    1.11000	    0.95000;
	17	 2	 77.0	 150.0	 0.0	 0.0	 1	    1.03000	    0.00000	 220.0	 1	    1.11000	    0.95000;
	18	 3	 153.0	 350.0	 0.0	 0.0	 1	    1.00000	    0.00000	 400.0	 1	    1.05000	    0.95000;
	19	 1	 0.0	 0.0	 0.0	 0.0	 1	    1.03000	    0.00000	 220.0	 1	    1.11000	    0.95000;
	20	 1	 0.0	 0.0	 0.0	 0.0	 1	    1.00000	    0.00000	 400.0	 1	    1.05000	    0.95000;
	21	 1	 0.0	 0.0	 0.0	 0.0	 1	    1.03000	    0.00000	 220.0	 1	    1.11000	    0.95000;
	22	 1	 0.0	 0.0	 0.0	 0.0	 1	    1.03000	    0.00000	 220.0	 1	    1.11000	    0.95000;
	23	 1	 0.0	 0.0	 0.0	 0.0	 1	    1.03000	    0.00000	 220.0	 2	    1.11000	    0.95000;
	24	 1	 0.0	 0.0	 0.0	 0.0	 1	    1.03000	    0.00000	 220.0	 2	    1.11000	    0.95000;
	25	 1	 0.0	 0.0	 0.0	 0.0	 1	    1.03000	    0.00000	 220.0	 2	    1.11000	    0.95000;
	26	 1	 0.0	 0.0	 0.0	 0.0	 1	    1.03000	    0.00000	 220.0	 2	    1.11000	    0.95000;
	27	 1	 0.0	 0.0	 0.0	 0.0	 1	    1.03000	    0.00000	 220.0	 2	    1.11000	    0.95000;
	28	 1	 0.0	 0.0	 0.0	 0.0	 1	    1.03000	    0.00000	 220.0	 2	    1.11000	    0.95000;
	29	 2	 25.98	 60.0	 0.0	 0.0	 1	    1.03000	    0.00000	 220.0	 2	    1.11000	    0.95000;
	30	 2	 25.98	 60.0	 0.0	 0.0	 1	    1.03000	    0.00000	 220.0	 2	    1.11000	    0.95000;
	31	 2	 20.98	 50.0	 0.0	 0.0	 1	    1.00000	    0.00000	 400.0	 2	    1.05000	    0.95000;
	32	 1	 0.0	 0.0	 0.0	 0.0	 1	    1.00000	    0.00000	 400.0	 2	    1.05000	    0.95000;
	33	 1	 0.0	 0.0	 0.0	 0.0	 1	    1.03000	    0.00000	 220.0	 2	    1.11000	    0.95000;
	34	 1	 0.0	 0.0	 0.0	 0.0	 1	    1.00000	    0.00000	 400.0	 2	    1.05000	    0.95000;
	35	 1	 0.0	 0.0	 0.0	 0.0	 1	    1.00000	    0.00000	 400.0	 2	    1.05000	    0.95000;
	36	 1	 0.0	 0.0	 0.0	 0.0	 1	    1.00000	    0.00000	 400.0	 2	    1.05000	    0.95000;
	37	 1	 0.0	 0.0	 0.0	 0.0	 1	    1.03000	    0.00000	 220.0	 2	    1.11000	    0.95000;
	38	 1	 0.0	 0.0	 0.0	 0.0	 1	    1.03000	    0.00000	 220.0	 2	    1.11000	    0.95000;
	39	 1	 0.0	 0.0	 0.0	 0.0	 1	    1.00000	    0.00000	 400.0	 2	    1.05000	    0.95000;
	40	 1	 0.0	 0.0	 0.0	 0.0	 1	    1.00000	    0.00000	 400.0	 2	    1.05000	    0.95000;
	41	 2	 11.99	 30.0	 0.0	 0.0	 1	    1.03000	    0.00000	 220.0	 2	    1.11000	    0.95000;
	42	 2	 11.99	 30.0	 0.0	 0.0	 1	    1.03000	    0.00000	 220.0	 2	    1.11000	    0.95000;
	43	 2	 23.98	 60.0	 0.0	 0.0	 1	    1.00000	    0.00000	 400.0	 2	    1.05000	    0.95000;
	44	 2	 23.98	 60.0	 0.0	 0.0	 1	    1.00000	    0.00000	 400.0	 2	    1.05000	    0.95000;
	45	 2	 159.84	 75.0	 0.0	 0.0	 1	    1.03000	    0.00000	 220.0	 2	    1.11000	    0.95000;
	46	 1	 0.0	 0.0	 0.0	 0.0	 1	    1.03000	    0.00000	 220.0	 2	    1.11000	    0.95000;
	47	 1	 0.0	 0.0	 0.0	 0.0	 1	    1.03000	    0.00000	 220.0	 2	    1.11000	    0.95000;
	48	 1	 0.0	 0.0	 0.0	 0.0	 1	    1.03000	    0.00000	 220.0	 2	    1.11000	    0.95000;
	49	 1	 0.0	 0.0	 0.0	 0.0	 1	    1.03000	    0.00000	 220.0	 2	    1.11000	    0.95000;
	50	 1	 0.0	 0.0	 0.0	 0.0	 1	    1.00000	    0.00000	 400.0	 2	    1.05000	    0.95000;
	51	 1	 0.0	 0.0	 0.0	 0.0	 1	    1.00000	    0.00000	 400.0	 2	    1.05000	    0.95000;
	52	 1	 0.0	 0.0	 0.0	 0.0	 1	    1.03000	    0.00000	 220.0	 2	    1.11000	    0.95000;
	53	 1	 0.0	 0.0	 0.0	 0.0	 1	    1.03000	    0.00000	 220.0	 2	    1.11000	    0.95000;
	54	 1	 0.0	 0.0	 0.0	 0.0	 1	    1.03000	    0.00000	 220.0	 2	    1.11000	    0.95000;
	55	 1	 0.0	 0.0	 0.0	 0.0	 1	    1.03000	    0.00000	 220.0	 2	    1.11000	    0.95000;
	56	 1	 0.0	 0.0	 0.0	 0.0	 1	    1.03000	    0.00000	 220.0	 3	    1.11000	    0.95000;
	57	 1	 22.98	 10.96	 0.0	 0.0	 1	    1.03000	    0.00000	 220.0	 3	    1.11000	    0.95000;
	58	 1	 21.98	 5.79	 0.0	 0.0	 1	    1.03000	    0.00000	 220.0	 3	    1.11000	    0.95000;
	59	 1	 0.0	 0.0	 0.0	 0.0	 1	    1.03000	    0.00000	 220.0	 3	    1.11000	    0.95000;
	60	 1	 0.0	 0.0	 0.0	 0.0	 1	    1.03000	    0.00000	 220.0	 3	    1.11000	    0.95000;
	61	 1	 0.0	 0.0	 0.0	 0.0	 1	    1.03000	    0.00000	 220.0	 3	    1.11000	    0.95000;
	62	 1	 0.0	 0.0	 0.0	 0.0	 1	    1.03000	    0.00000	 220.0	 3	    1.11000	    0.95000;
	63	 2	 37.37	 52.69	 0.0	 0.0	 1	    1.03000	    0.00000	 220.0	 3	    1.11000	    0.95000;
	64	 2	 35.37	 55.32	 0.0	 0.0	 1	    1.03000	    0.00000	 220.0	 3	    1.11000	    0.95000;
	65	 1	 13.39	 2.02	 0.0	 0.0	 1	    1.03000	    0.00000	 220.0	 3	    1.11000	    0.95000;
	66	 1	 0.0	 0.0	 0.0	 0.0	 1	    1.03000	    0.00000	 220.0	 3	    1.11000	    0.95000;
	67	 2	 60.4	 92.1	 0.0	 0.0	 1	    1.00000	    0.00000	 400.0	 3	    1.05000	    0.95000;
	68	 1	 0.0	 0.0	 0.0	 0.0	 1	    1.03000	    0.00000	 220.0	 3	    1.11000	    0.95000;
	69	 1	 0.0	 0.0	 0.0	 0.0	 1	    1.03000	    0.00000	 220.0	 3	    1.11000	    0.95000;
	70	 1	 0.0	 0.0	 0.0	 0.0	 1	    1.03000	    0.00000	 220.0	 3	    1.11000	    0.95000;
	71	 1	 0.0	 0.0	 0.0	 0.0	 1	    1.03000	    0.00000	 220.0	 3	    1.11000	    0.95000;
	72	 1	 0.0	 0.0	 0.0	 0.0	 1	    1.03000	    0.00000	 220.0	 3	    1.11000	    0.95000;
	73	 1	 0.0	 0.0	 0.0	 0.0	 1	    1.03000	    0.00000	 220.0	 3	    1.11000	    0.95000;
	74	 1	 0.0	 0.0	 0.0	 0.0	 1	    1.03000	    0.00000	 220.0	 3	    1.11000	    0.95000;
	75	 1	 0.0	 0.0	 0.0	 0.0	 1	    1.00000	    0.00000	 400.0	 3	    1.05000	    0.95000;
	76	 1	 0.0	 0.0	 0.0	 0.0	 1	    1.00000	    0.00000	 400.0	 3	    1.05000	    0.95000;
	77	 1	 0.0	 0.0	 0.0	 0.0	 1	    1.03000	    0.00000	 220.0	 3	    1.11000	    0.95000;
	78	 1	 0.0	 0.0	 0.0	 0.0	 1	    1.03000	    0.00000	 220.0	 3	    1.11000	    0.95000;
	79	 1	 0.0	 0.0	 0.0	 0.0	 1	    1.03000	    0.00000	 220.0	 3	    1.11000	    0.95000;
	80	 1	 0.0	 0.0	 0.0	 0.0	 1	    1.03000	    0.00000	 220.0	 3	    1.11000	    0.95000;
	81	 1	 0.0	 0.0	 0.0	 0.0	 1	    1.03000	    0.00000	 220.0	 3	    1.11000	    0.95000;
	82	 1	 0.0	 0.0	 0.0	 0.0	 1	    1.03000	    0.00000	 220.0	 3	    1.11000	    0.95000;
	83	 2	 15.99	 22.97	 0.0	 0.0	 1	    1.03000	    0.00000	 220.0	 3	    1.11000	    0.95000;
	84	 2	 15.79	 22.27	 0.0	 0.0	 1	    1.03000	    0.00000	 220.0	 3	    1.11000	    0.95000;
	85	 2	 9.99	 17.01	 0.0	 0.0	 1	    1.03000	    0.00000	 220.0	 3	    1.11000	    0.95000;
	86	 2	 9.99	 16.66	 0.0	 0.0	 1	    1.03000	    0.00000	 220.0	 3	    1.11000	    0.95000;
	87	 1	 11.09	 16.22	 0.0	 0.0	 1	    1.03000	    0.00000	 220.0	 3	    1.11000	    0.95000;
	88	 1	 0.0	 0.0	 0.0	 0.0	 1	    1.03000	    0.00000	 220.0	 3	    1.11000	    0.95000;
	89	 1	 0.0	 0.0	 0.0	 0.0	 1	    1.03000	    0.00000	 220.0	 3	    1.11000	    0.95000;
	90	 1	 0.0	 0.0	 0.0	 0.0	 1	    1.03000	    0.00000	 220.0	 3	    1.11000	    0.95000;
	91	 1	 0.0	 0.0	 0.0	 0.0	 1	    1.03000	    0.00000	 220.0	 3	    1.11000	    0.95000;
	92	 1	 0.0	 0.0	 0.0	 0.0	 1	    1.00000	    0.00000	 400.0	 3	    1.05000	    0.95000;
	93	 2	 9.99	 16.39	 0.0	 0.0	 1	    1.03000	    0.00000	 220.0	 3	    1.11000	    0.95000;
	94	 1	 0.0	 0.0	 0.0	 0.0	 1	    1.03000	    0.00000	 220.0	 3	    1.11000	    0.95000;
	95	 2	 6.89	 8.15	 0.0	 0.0	 1	    1.03000	    0.00000	 220.0	 3	    1.11000	    0.95000;
	96	 1	 0.0	 0.0	 0.0	 0.0	 1	    1.03000	    0.00000	 220.0	 3	    1.11000	    0.95000;
	97	 2	 8.69	 5.26	 0.0	 0.0	 1	    1.03000	    0.00000	 220.0	 3	    1.11000	    0.95000;
	98	 1	 0.0	 0.0	 0.0	 0.0	 1	    1.00000	    0.00000	 400.0	 3	    1.05000	    0.95000;
	99	 1	 0.0	 0.0	 0.0	 0.0	 1	    1.00000	    0.00000	 400.0	 3	    1.05000	    0.95000;
	100	 1	 0.0	 0.0	 0.0	 0.0	 1	    1.00000	    0.00000	 400.0	 3	    1.05000	    0.95000;
	101	 1	 0.0	 0.0	 0.0	 0.0	 1	    1.00000	    0.00000	 400.0	 3	    1.05000	    0.95000;
	102	 1	 0.0	 0.0	 0.0	 0.0	 1	    1.03000	    0.00000	 220.0	 3	    1.11000	    0.95000;
	103	 2	 18.09	 23.76	 0.0	 0.0	 1	    1.03000	    0.00000	 220.0	 3	    1.11000	    0.95000;
	104	 2	 33.68	 46.11	 0.0	 0.0	 1	    1.03000	    0.00000	 220.0	 3	    1.11000	    0.95000;
	105	 2	 33.78	 62.95	 0.0	 0.0	 1	    1.00000	    0.00000	 400.0	 3	    1.05000	    0.95000;
	106	 1	 0.0	 0.0	 0.0	 0.0	 1	    1.00000	    0.00000	 400.0	 3	    1.05000	    0.95000;
	107	 1	 0.0	 0.0	 0.0	 0.0	 1	    1.03000	    0.00000	 220.0	 3	    1.11000	    0.95000;
	108	 1	 0.0	 0.0	 0.0	 0.0	 1	    1.03000	    0.00000	 220.0	 3	    1.11000	    0.95000;
	109	 2	 1.0	 22.36	 0.0	 0.0	 1	    1.03000	    0.00000	 220.0	 3	    1.11000	    0.95000;
	110	 2	 1.0	 22.18	 0.0	 0.0	 1	    1.03000	    0.00000	 220.0	 3	    1.11000	    0.95000;
	111	 2	 26.49	 18.0	 0.0	 0.0	 1	    1.03000	    0.00000	 220.0	 4	    1.11000	    0.95000;
	112	 1	 0.0	 0.0	 0.0	 0.0	 1	    1.03000	    0.00000	 220.0	 4	    1.11000	    0.95000;
	113	 1	 0.0	 0.0	 0.0	 0.0	 1	    1.03000	    0.00000	 220.0	 4	    1.11000	    0.95000;
	114	 1	 0.0	 0.0	 0.0	 0.0	 1	    1.03000	    0.00000	 220.0	 4	    1.11000	    0.95000;
	115	 1	 0.0	 0.0	 0.0	 0.0	 1	    1.00000	    0.00000	 400.0	 4	    1.05000	    0.95000;
	116	 1	 0.0	 0.0	 0.0	 0.0	 1	    1.00000	    0.00000	 400.0	 4	    1.05000	    0.95000;
	117	 1	 0.0	 0.0	 0.0	 0.0	 1	    1.03000	    0.00000	 220.0	 4	    1.11000	    0.95000;
	118	 1	 0.0	 0.0	 0.0	 0.0	 1	    1.03000	    0.00000	 220.0	 4	    1.11000	    0.95000;
	119	 1	 0.0	 0.0	 0.0	 0.0	 1	    1.03000	    0.00000	 220.0	 4	    1.11000	    0.95000;
	120	 1	 0.0	 0.0	 0.0	 0.0	 1	    1.03000	    0.00000	 220.0	 4	    1.11000	    0.95000;
	121	 1	 0.0	 0.0	 0.0	 0.0	 1	    1.03000	    0.00000	 220.0	 4	    1.11000	    0.95000;
	122	 1	 0.0	 0.0	 0.0	 0.0	 1	    1.03000	    0.00000	 220.0	 4	    1.11000	    0.95000;
	123	 2	 5.5	 7.0	 0.0	 0.0	 1	    1.03000	    0.00000	 220.0	 4	    1.11000	    0.95000;
	124	 2	 8.79	 17.0	 0.0	 0.0	 1	    1.03000	    0.00000	 220.0	 4	    1.11000	    0.95000;
	125	 2	 35.7	 18.3	 0.0	 0.0	 1	    1.03000	    0.00000	 220.0	 4	    1.11000	    0.95000;
	126	 1	 25.28	 15.9	 0.0	 0.0	 1	    1.03000	    0.00000	 220.0	 4	    1.11000	    0.95000;
	127	 2	 25.71	 15.3	 0.0	 0.0	 1	    1.00000	    0.00000	 400.0	 4	    1.05000	    0.95000;
	128	 1	 0.0	 0.0	 0.0	 0.0	 1	    1.00000	    0.00000	 400.0	 4	    1.05000	    0.95000;
	129	 1	 0.0	 0.0	 0.0	 0.0	 1	    1.03000	    0.00000	 220.0	 4	    1.11000	    0.95000;
	130	 1	 0.0	 0.0	 0.0	 0.0	 1	    1.03000	    0.00000	 220.0	 4	    1.11000	    0.95000;
	131	 2	 68.67	 70.0	 0.0	 0.0	 1	    1.03000	    0.00000	 220.0	 4	    1.11000	    0.95000;
	132	 2	 33.0	 45.0	 0.0	 0.0	 1	    1.03000	    0.00000	 220.0	 4	    1.11000	    0.95000;
	133	 1	 0.0	 0.0	 0.0	 0.0	 1	    1.00000	    0.00000	 400.0	 4	    1.05000	    0.95000;
	134	 1	 0.0	 0.0	 0.0	 0.0	 1	    1.00000	    0.00000	 400.0	 4	    1.05000	    0.95000;
	135	 1	 0.0	 0.0	 0.0	 0.0	 1	    1.03000	    0.00000	 220.0	 4	    1.11000	    0.95000;
	136	 1	 0.0	 0.0	 0.0	 0.0	 1	    1.03000	    0.00000	 220.0	 4	    1.11000	    0.95000;
	137	 1	 0.0	 0.0	 0.0	 0.0	 1	    1.00000	    0.00000	 400.0	 4	    1.05000	    0.95000;
	138	 1	 0.0	 0.0	 0.0	 0.0	 1	    1.00000	    0.00000	 400.0	 4	    1.05000	    0.95000;
	139	 2	 33.2	 22.6	 0.0	 0.0	 1	    1.03000	    0.00000	 220.0	 4	    1.11000	    0.95000;
	140	 2	 29.23	 19.6	 0.0	 0.0	 1	    1.03000	    0.00000	 220.0	 4	    1.11000	    0.95000;
	141	 1	 0.0	 0.0	 0.0	 0.0	 1	    1.03000	    0.00000	 220.0	 4	    1.11000	    0.95000;
	142	 1	 0.0	 0.0	 0.0	 0.0	 1	    1.03000	    0.00000	 220.0	 4	    1.11000	    0.95000;
	143	 1	 0.0	 0.0	 0.0	 0.0	 1	    1.03000	    0.00000	 220.0	 4	    1.11000	    0.95000;
	144	 1	 0.0	 0.0	 0.0	 0.0	 1	    1.03000	    0.00000	 220.0	 4	    1.11000	    0.95000;
	145	 1	 0.0	 0.0	 0.0	 0.0	 1	    1.00000	    0.00000	 400.0	 4	    1.05000	    0.95000;
	146	 1	 0.0	 0.0	 0.0	 0.0	 1	    1.00000	    0.00000	 400.0	 4	    1.05000	    0.95000;
	147	 1	 0.0	 0.0	 0.0	 0.0	 1	    1.03000	    0.00000	 220.0	 4	    1.11000	    0.95000;
	148	 1	 0.0	 0.0	 0.0	 0.0	 1	    1.03000	    0.00000	 220.0	 4	    1.11000	    0.95000;
	149	 1	 0.0	 0.0	 0.0	 0.0	 1	    1.03000	    0.00000	 220.0	 4	    1.11000	    0.95000;
	150	 1	 0.0	 0.0	 0.0	 0.0	 1	    1.03000	    0.00000	 220.0	 4	    1.11000	    0.95000;
	151	 1	 0.0	 0.0	 0.0	 0.0	 1	    1.03000	    0.00000	 220.0	 4	    1.11000	    0.95000;
	152	 1	 0.0	 0.0	 0.0	 0.0	 1	    1.03000	    0.00000	 220.0	 4	    1.11000	    0.95000;
	153	 1	 0.0	 0.0	 0.0	 0.0	 1	    1.03000	    0.00000	 220.0	 4	    1.11000	    0.95000;
	154	 1	 0.0	 0.0	 0.0	 0.0	 1	    1.03000	    0.00000	 220.0	 4	    1.11000	    0.95000;
	155	 1	 0.0	 0.0	 0.0	 0.0	 1	    1.03000	    0.00000	 220.0	 5	    1.11000	    0.95000;
	156	 1	 0.0	 0.0	 0.0	 0.0	 1	    1.03000	    0.00000	 220.0	 5	    1.11000	    0.95000;
	157	 1	 0.0	 0.0	 0.0	 0.0	 1	    1.00000	    0.00000	 400.0	 5	    1.05000	    0.95000;
	158	 1	 0.0	 0.0	 0.0	 0.0	 1	    1.00000	    0.00000	 400.0	 5	    1.05000	    0.95000;
	159	 1	 0.0	 0.0	 0.0	 0.0	 1	    1.00000	    0.00000	 400.0	 5	    1.05000	    0.95000;
	160	 1	 0.0	 0.0	 0.0	 0.0	 1	    1.00000	    0.00000	 400.0	 5	    1.05000	    0.95000;
	161	 1	 0.0	 0.0	 0.0	 0.0	 1	    1.03000	    0.00000	 220.0	 5	    1.11000	    0.95000;
	162	 1	 0.0	 0.0	 0.0	 0.0	 1	    1.03000	    0.00000	 220.0	 5	    1.11000	    0.95000;
	163	 1	 0.0	 0.0	 0.0	 0.0	 1	    1.03000	    0.00000	 220.0	 5	    1.11000	    0.95000;
	164	 1	 0.0	 0.0	 0.0	 0.0	 1	    1.03000	    0.00000	 220.0	 5	    1.11000	    0.95000;
	165	 1	 0.0	 0.0	 0.0	 0.0	 1	    1.00000	    0.00000	 400.0	 5	    1.05000	    0.95000;
	166	 1	 0.0	 0.0	 0.0	 0.0	 1	    1.03000	    0.00000	 220.0	 5	    1.11000	    0.95000;
	167	 1	 0.0	 0.0	 0.0	 0.0	 1	    1.03000	    0.00000	 220.0	 5	    1.11000	    0.95000;
	168	 1	 0.0	 0.0	 0.0	 0.0	 1	    1.00000	    0.00000	 400.0	 5	    1.05000	    0.95000;
	169	 1	 0.0	 0.0	 0.0	 0.0	 1	    1.00000	    0.00000	 400.0	 5	    1.05000	    0.95000;
	170	 1	 0.0	 0.0	 0.0	 0.0	 1	    1.03000	    0.00000	 220.0	 5	    1.11000	    0.95000;
	171	 1	 0.0	 0.0	 0.0	 0.0	 1	    1.03000	    0.00000	 220.0	 5	    1.11000	    0.95000;
	172	 1	 0.0	 0.0	 0.0	 0.0	 1	    1.03000	    0.00000	 220.0	 5	    1.11000	    0.95000;
	173	 1	 0.0	 0.0	 0.0	 0.0	 1	    1.03000	    0.00000	 220.0	 5	    1.11000	    0.95000;
	174	 1	 0.0	 0.0	 0.0	 0.0	 1	    1.03000	    0.00000	 220.0	 5	    1.11000	    0.95000;
	175	 1	 0.0	 0.0	 0.0	 0.0	 1	    1.03000	    0.00000	 220.0	 5	    1.11000	    0.95000;
	176	 2	 0.0	 40.0	 0.0	 0.0	 1	    1.00000	    0.00000	 400.0	 5	    1.05000	    0.95000;
	177	 2	 0.0	 40.0	 0.0	 0.0	 1	    1.00000	    0.00000	 400.0	 5	    1.05000	    0.95000;
	178	 1	 0.0	 0.0	 0.0	 0.0	 1	    1.03000	    0.00000	 220.0	 5	    1.11000	    0.95000;
	179	 1	 0.0	 0.0	 0.0	 0.0	 1	    1.03000	    0.00000	 220.0	 5	    1.11000	    0.95000;
	180	 2	 339.85	 49.6	 0.0	 0.0	 2	    1.00000	    0.00000	 400.0	 6	    1.05000	    0.95000;
	181	 2	 0.0	 0.0	 0.0	 0.0	 3	    1.03000	    0.00000	 220.0	 6	    1.11000	    0.95000;
	182	 2	 0.0	 0.0	 0.0	 0.0	 5	    1.00000	    0.00000	 400.0	 6	    1.05000	    0.95000;
	183	 1	 150.0	 0.0	 0.0	 0.0	 3	    1.00000	    0.00000	 400.0	 6	    1.05000	    0.95000;
	184	 2	 317.34	 50.3	 0.0	 0.0	 2	    1.03000	    0.00000	 220.0	 6	    1.11000	    0.95000;
	185	 2	 362.43	 36.7	 0.0	 0.0	 2	    1.00000	    0.00000	 400.0	 6	    1.05000	    0.95000;
	186	 2	 33.33	 1.0	 0.0	 0.0	 5	    1.03000	    0.00000	 220.0	 6	    1.11000	    0.95000;
	187	 1	 7.12	 1.5	 0.0	 0.0	 1	    1.03500	    0.00000	 110.0	 1	    1.12000	    0.95000;
	188	 1	 7.63	 1.0	 0.0	 0.0	 1	    1.03500	    0.00000	 110.0	 1	    1.12000	    0.95000;
	189	 1	 9.77	 8.7	 0.0	 0.0	 1	    1.03500	    0.00000	 110.0	 1	    1.12000	    0.95000;
	190	 1	 6.12	 1.5	 0.0	 0.0	 1	    1.03500	    0.00000	 110.0	 1	    1.12000	    0.95000;
	191	 1	 6.12	 1.6	 0.0	 0.0	 1	    1.03500	    0.00000	 110.0	 1	    1.12000	    0.95000;
	192	 2	 30.56	 12.0	 0.0	 0.0	 1	    1.03500	    0.00000	 110.0	 1	    1.12000	    0.95000;
	193	 1	 15.28	 3.0	 0.0	 0.0	 1	    1.03500	    0.00000	 110.0	 1	    1.12000	    0.95000;
	194	 1	 0.0	 0.0	 0.0	 0.0	 1	    1.03500	    0.00000	 110.0	 1	    1.12000	    0.95000;
	195	 1	 8.14	 2.0	 0.0	 0.0	 1	    1.03500	    0.00000	 110.0	 1	    1.12000	    0.95000;
	196	 2	 6.92	 1.5	 0.0	 0.0	 1	    1.03500	    0.00000	 110.0	 1	    1.12000	    0.95000;
	197	 1	 6.92	 1.5	 0.0	 0.0	 1	    1.03500	    0.00000	 110.0	 1	    1.12000	    0.95000;
	198	 2	 12.32	 1.7	 0.0	 0.0	 1	    1.03500	    0.00000	 110.0	 1	    1.12000	    0.95000;
	199	 1	 1.43	 0.5	 0.0	 0.0	 1	    1.03500	    0.00000	 110.0	 1	    1.12000	    0.95000;
	200	 1	 1.08	 0.5	 0.0	 0.0	 1	    1.03500	    0.00000	 110.0	 1	    1.12000	    0.95000;
...
];

%% generator data
%	bus	Pg	Qg	Qmax	Qmin	Vg	mBase	status	Pmax	Pmin
mpc.gen = [
	10	 235.0	 60.0	 120.0	 0.0	 1.03	 168.0	 1	 400.0	 70.0; 0 
	16	 420.0	 200.0	 440.0	 -40.0	 1.03	 823.0	 1	 720.0	 120.0; 0 
	17	 600.0	 300.0	 660.0	 -60.0	 1.03	 1234.0	 1	 1080.0	 120.0; 0 
	18	 1320.0	 700.0	 1540.0	 -140.0	 1.0	 2879.0	 1	 2520.0	 120.0; 0 
	29	 235.0	 120.0	 240.0	 0.0	 1.03	 511.0	 1	 400.0	 70.0; 0 
	30	 435.0	 120.0	 240.0	 0.0	 1.03	 511.0	 1	 800.0	 70.0; 0 
	31	 575.0	 175.0	 350.0	 0.0	 1.0	 420.0	 1	 1000.0	 150.0; 0 
	41	 135.0	 60.0	 120.0	 0.0	 1.03	 241.0	 1	 200.0	 70.0; 0 
	42	 240.0	 60.0	 120.0	 0.0	 1.03	 241.0	 1	 410.0	 70.0; 0 
	43	 240.0	 120.0	 240.0	 0.0	 1.0	 482.0	 1	 410.0	 70.0; 0 
	44	 240.0	 120.0	 240.0	 0.0	 1.0	 482.0	 1	 410.0	 70.0; 0 
	45	 40.67	 10.5	 21.0	 0.0	 1.03	 49.0	 1	 42.2	 39.14; 0 
	63	 397.5	 151.0	 302.0	 0.0	 1.03	 473.0	 1	 650.0	 145.0; 0 
	64	 297.5	 156.5	 311.0	 2.0	 1.03	 475.0	 1	 450.0	 145.0; 0 
	67	 485.0	 224.5	 449.0	 0.0	 1.0	 864.0	 1	 750.0	 220.0; 0 
	83	 182.5	 50.5	 190.0	 -89.0	 1.03	 239.0	 1	 225.0	 140.0; 0 
	84	 182.5	 50.5	 190.0	 -89.0	 1.03	 251.0	 1	 225.0	 140.0; 0 
	85	 80.0	 37.5	 125.0	 -50.0	 1.03	 133.0	 1	 120.0	 40.0; 0 
	86	 80.0	 37.5	 125.0	 -50.0	 1.03	 133.0	 1	 120.0	 40.0; 0 
	93	 100.0	 47.5	 90.0	 5.0	 1.03	 123.0	 1	 120.0	 80.0; 0 
	95	 80.0	 47.5	 68.0	 27.0	 1.03	 105.0	 1	 110.0	 50.0; 0 
	97	 85.43	 47.5	 68.0	 27.0	 1.03	 105.0	 1	 87.6	 83.26; 0 
	103	 280.0	 47.5	 177.0	 -82.0	 1.03	 239.0	 1	 400.0	 160.0; 0 
	104	 182.5	 101.0	 379.0	 -177.0	 1.03	 490.0	 1	 225.0	 140.0; 0 
	105	 295.0	 94.0	 353.0	 -165.0	 1.0	 502.0	 1	 430.0	 160.0; 0 
	109	 165.0	 32.5	 65.0	 0.0	 1.03	 277.0	 1	 250.0	 80.0; 0 
	110	 165.0	 32.5	 65.0	 0.0	 1.03	 280.0	 1	 250.0	 80.0; 0 
	111	 200.0	 135.0	 270.0	 0.0	 1.03	 401.0	 1	 360.0	 40.0; 0 
	123	 65.0	 20.0	 40.0	 0.0	 1.03	 98.0	 1	 110.0	 20.0; 0 
	124	 85.0	 45.0	 90.0	 0.0	 1.03	 132.0	 1	 125.0	 45.0; 0 
	125	 465.0	 180.0	 360.0	 0.0	 1.03	 654.0	 1	 860.0	 70.0; 0 
	127	 380.0	 180.0	 360.0	 0.0	 1.0	 540.0	 1	 690.0	 70.0; 0 
	131	 565.0	 180.0	 360.0	 0.0	 1.03	 696.0	 1	 1060.0	 70.0; 0 
	132	 335.0	 240.0	 480.0	 0.0	 1.03	 732.0	 1	 600.0	 70.0; 0 
	139	 335.0	 180.0	 360.0	 0.0	 1.03	 714.0	 1	 600.0	 70.0; 0 
	140	 135.0	 60.0	 120.0	 0.0	 1.03	 240.0	 1	 200.0	 70.0; 0 
	176	 335.0	 50.0	 220.0	 -120.0	 1.0	 430.0	 1	 600.0	 70.0; 0 
	177	 135.0	 50.0	 220.0	 -120.0	 1.0	 430.0	 1	 200.0	 70.0; 0 
	180	 0.0	 0.0	 50.5632	 -50.5632	 1.0	 7485.0	 1	 0.0	 0.0; 0 
	181	 174.5	 0.0	 78.4518	 -78.4518	 1.03	 210.0	 1	 175.0	 174.0; 0 
	182	 306.795	 0.0	 145.6185	 -145.6185	 1.0	 13465.0	 1	 307.59	 306.0; 0 
	184	 0.0	 0.0	 208.7361	 -208.7361	 1.03	 8353.0	 1	 0.0	 0.0; 0 
	185	 0.0	 0.0	 36.699	 -36.699	 1.0	 14254.0	 1	 0.0	 0.0; 0 
	186	 0.0	 0.0	 96.2922	 -96.2922	 1.03	 7401.0	 1	 0.0	 0.0; 0 
	192	 92.625	 25.0	 50.0	 0.0	 1.035	 114.0	 1	 95.0	 90.25; 0 
	196	 0.88	 0.5	 1.0	 0.0	 1.035	 1.0	 1	 0.9	 0.86; 0 
	198	 0.78	 0.5	 1.0	 0.0	 1.035	 1.0	 1	 0.8	 0.76; 0 
	205	 14.625	 5.0	 10.0	 0.0	 1.035	 18.0	 1	 15.0	 14.25; 0 
	213	 10.725	 4.0	 8.0	 0.0	 1.035	 13.0	 1	 11.0	 10.45; 0 
	264	 2.44	 1.0	 2.0	 0.0	 1.035	 3.0	 1	 2.5	 2.38; 0 
	269	 5.85	 2.5	 5.0	 0.0	 1.035	 7.0	 1	 6.0	 5.7; 0 
	277	 68.25	 21.0	 42.0	 0.0	 1.035	 84.0	 1	 70.0	 66.5; 0 
	278	 58.5	 20.0	 40.0	 0.0	 1.035	 72.0	 1	 60.0	 57.0; 0 
	279	 58.5	 20.0	 40.0	 0.0	 1.035	 72.0	 1	 60.0	 57.0; 0 
	281	 117.0	 45.0	 90.0	 0.0	 1.035	 144.0	 1	 120.0	 114.0; 0 
	282	 39.0	 20.0	 40.0	 0.0	 1.035	 48.0	 1	 40.0	 38.0; 0 
	289	 2.44	 1.5	 3.0	 0.0	 1.035	 3.0	 1	 2.5	 2.38; 0 
	294	 1.95	 0.5	 1.0	 0.0	 1.035	 2.0	 1	 2.0	 1.9; 0 
	314	 1.465	 0.5	 1.0	 0.0	 1.035	 2.0	 1	 1.5	 1.43; 0 
	328	 42.9	 10.5	 21.0	 0.0	 1.035	 53.0	 1	 44.0	 41.8; 0 
	329	 42.9	 10.5	 21.0	 0.0	 1.035	 53.0	 1	 44.0	 41.8; 0 
	330	 42.9	 10.5	 21.0	 0.0	 1.035	 53.0	 1	 44.0	 41.8; 0 
	331	 41.925	 10.5	 21.0	 0.0	 1.035	 52.0	 1	 43.0	 40.85; 0 
	334	 1.465	 0.5	 1.0	 0.0	 1.035	 2.0	 1	 1.5	 1.43; 0 
	346	 135.0	 60.0	 120.0	 0.0	 1.035	 180.0	 1	 200.0	 70.0; 0 
	347	 10.0	 7.5	 15.0	 0.0	 1.035	 12.0	 1	 10.0	 10.0; 0 
	359	 1.465	 0.5	 1.0	 0.0	 1.035	 2.0	 1	 1.5	 1.43; 0 
	365	 4.975	 1.5	 3.0	 0.0	 1.035	 6.0	 1	 5.1	 4.85; 0 
	382	 7.8	 2.5	 5.0	 0.0	 1.035	 10.0	 1	 8.0	 7.6; 0 
	383	 7.8	 2.5	 5.0	 0.0	 1.035	 10.0	 1	 8.0	 7.6; 0 
	385	 5.85	 2.0	 4.0	 0.0	 1.035	 7.0	 1	 6.0	 5.7; 0 
	390	 4.39	 1.5	 3.0	 0.0	 1.035	 5.0	 1	 4.5	 4.28; 0 
	395	 9.75	 4.0	 8.0	 0.0	 1.035	 12.0	 1	 10.0	 9.5; 0 
	404	 2.925	 1.5	 3.0	 0.0	 1.035	 4.0	 1	 3.0	 2.85; 0 
	426	 3.12	 1.0	 2.0	 0.0	 1.035	 4.0	 1	 3.2	 3.04; 0 
	444	 0.975	 0.5	 1.0	 0.0	 1.035	 1.0	 1	 1.0	 0.95; 0 
	451	 4.39	 1.5	 3.0	 0.0	 1.035	 5.0	 1	 4.5	 4.28; 0 
	482	 0.975	 0.5	 1.0	 0.0	 1.035	 1.0	 1	 1.0	 0.95; 0 
	492	 1.95	 0.5	 1.0	 0.0	 1.035	 2.0	 1	 2.0	 1.9; 0 
	493	 228.15	 65.0	 130.0	 0.0	 1.035	 281.0	 1	 234.0	 222.3; 0 
	494	 228.15	 65.0	 130.0	 0.0	 1.035	 281.0	 1	 234.0	 222.3; 0 
	514	 112.125	 45.0	 90.0	 0.0	 1.035	 138.0	 1	 115.0	 109.25; 0 
	515	 112.125	 45.0	 90.0	 0.0	 1.035	 138.0	 1	 115.0	 109.25; 0 
	525	 5.85	 2.0	 4.0	 0.0	 1.035	 7.0	 1	 6.0	 5.7; 0 
	536	 5.85	 3.0	 6.0	 0.0	 1.035	 7.0	 1	 6.0	 5.7; 0 
	537	 3.415	 1.5	 3.0	 0.0	 1.035	 4.0	 1	 3.5	 3.33; 0 
	556	 2.635	 0.5	 1.0	 0.0	 1.035	 3.0	 1	 2.7	 2.57; 0 
	580	 1.56	 0.5	 1.0	 0.0	 1.035	 2.0	 1	 1.6	 1.52; 0 
	584	 2.635	 1.0	 2.0	 0.0	 1.035	 3.0	 1	 2.7	 2.57; 0 
	585	 3.9	 1.0	 2.0	 0.0	 1.035	 5.0	 1	 4.0	 3.8; 0 
	607	 0.78	 0.0	 0.0	 0.0	 1.035	 1.0	 1	 0.8	 0.76; 0 
	612	 135.0	 60.0	 120.0	 0.0	 1.035	 256.0	 1	 200.0	 70.0; 0 
	613	 135.0	 60.0	 120.0	 0.0	 1.035	 256.0	 1	 200.0	 70.0; 0 
	615	 1.365	 0.5	 1.0	 0.0	 1.035	 2.0	 1	 1.4	 1.33; 0 
	623	 7.41	 2.5	 5.0	 0.0	 1.035	 9.0	 1	 7.6	 7.22; 0 
	639	 9.36	 2.0	 4.0	 0.0	 1.035	 12.0	 1	 9.6	 9.12; 0 
	651	 4.585	 1.0	 2.0	 0.0	 1.035	 6.0	 1	 4.7	 4.47; 0 
	654	 1.365	 0.5	 1.0	 0.0	 1.035	 2.0	 1	 1.4	 1.33; 0 
	664	 6.045	 3.0	 6.0	 0.0	 1.035	 7.0	 1	 6.2	 5.89; 0 
	670	 2.635	 1.0	 2.0	 0.0	 1.035	 3.0	 1	 2.7	 2.57; 0 
	674	 0.975	 0.0	 0.0	 0.0	 1.035	 1.0	 1	 1.0	 0.95; 0 
	688	 136.0	 60.0	 120.0	 0.0	 1.035	 242.0	 1	 202.0	 70.0; 0 
	692	 1.365	 0.5	 1.0	 0.0	 1.035	 2.0	 1	 1.4	 1.33; 0 
	699	 3.705	 1.0	 2.0	 0.0	 1.035	 5.0	 1	 3.8	 3.61; 0 
	712	 1.17	 0.5	 1.0	 0.0	 1.035	 1.0	 1	 1.2	 1.14; 0 
	730	 6.73	 1.5	 3.0	 0.0	 1.035	 8.0	 1	 6.9	 6.56; 0 
	732	 1.075	 0.5	 1.0	 0.0	 1.035	 1.0	 1	 1.1	 1.05; 0 
	735	 4.0	 1.0	 2.0	 0.0	 1.035	 5.0	 1	 4.1	 3.9; 0 
	740	 3.9	 0.5	 1.0	 0.0	 1.035	 5.0	 1	 4.0	 3.8; 0 
	744	 130.65	 30.0	 60.0	 0.0	 1.035	 161.0	 1	 134.0	 127.3; 0 
	754	 45.0	 15.0	 30.0	 0.0	 1.035	 54.0	 1	 80.0	 10.0; 0 
	755	 167.5	 40.0	 80.0	 0.0	 1.035	 110.0	 1	 250.0	 85.0; 0 
	760	 3.025	 1.0	 2.0	 0.0	 1.035	 4.0	 1	 3.1	 2.95; 0 
	766	 2.05	 0.5	 1.0	 0.0	 1.035	 3.0	 1	 2.1	 2.0; 0 
	784	 0.685	 0.0	 0.0	 0.0	 1.035	 1.0	 1	 0.7	 0.67; 0 
	790	 48.555	 35.0	 35.0	 35.0	 1.035	 60.0	 1	 49.8	 47.31; 0 
	795	 1.845	 1.0	 1.0	 1.0	 1.035	 2.0	 1	 1.89	 1.8; 0 
	798	 2.915	 3.0	 3.0	 3.0	 1.035	 4.0	 1	 2.99	 2.84; 0 
	814	 43.795	 21.0	 42.0	 0.0	 1.035	 54.0	 1	 44.92	 42.67; 0 
	834	 39.0	 41.5	 83.0	 0.0	 1.035	 110.0	 1	 55.0	 23.0; 0 
	878	 2.915	 0.0	 0.0	 0.0	 1.035	 4.0	 1	 2.99	 2.84; 0 
	884	 2.43	 0.0	 0.0	 0.0	 1.035	 3.0	 1	 2.49	 2.37; 0 
	892	 31.075	 24.0	 42.0	 6.0	 1.035	 38.0	 1	 31.87	 30.28; 0 
	895	 8.735	 7.0	 7.0	 7.0	 1.035	 11.0	 1	 8.96	 8.51; 0 
	901	 3.59	 2.0	 2.0	 2.0	 1.035	 4.0	 1	 3.68	 3.5; 0 
	910	 4.465	 3.0	 3.0	 3.0	 1.035	 6.0	 1	 4.58	 4.35; 0 
	911	 325.0	 112.0	 224.0	 0.0	 1.035	 415.0	 1	 370.0	 280.0; 0 
	912	 325.0	 112.0	 224.0	 0.0	 1.035	 415.0	 1	 370.0	 280.0; 0 
	914	 15.53	 10.0	 10.0	 10.0	 1.035	 19.0	 1	 15.93	 15.13; 0 
	917	 2.04	 0.0	 0.0	 0.0	 1.035	 3.0	 1	 2.09	 1.99; 0 
	919	 21.36	 12.0	 12.0	 12.0	 1.035	 26.0	 1	 21.91	 20.81; 0 
	920	 1.94	 0.0	 0.0	 0.0	 1.035	 2.0	 1	 1.99	 1.89; 0 
	929	 62.135	 39.5	 50.0	 29.0	 1.035	 77.0	 1	 63.73	 60.54; 0 
	959	 2.43	 1.0	 1.0	 1.0	 1.035	 3.0	 1	 2.49	 2.37; 0 
	968	 0.685	 0.0	 0.0	 0.0	 1.035	 1.0	 1	 0.7	 0.67; 0 
	993	 3.88	 1.0	 1.0	 1.0	 1.035	 5.0	 1	 3.98	 3.78; 0 
	994	 1.94	 1.0	 1.0	 1.0	 1.035	 2.0	 1	 1.99	 1.89; 0 
	995	 60.0	 19.0	 38.0	 0.0	 1.035	 60.0	 1	 100.0	 20.0; 0 
	996	 35.0	 19.0	 38.0	 0.0	 1.035	 60.0	 1	 50.0	 20.0; 0 
	997	 35.0	 19.0	 38.0	 0.0	 1.035	 60.0	 1	 50.0	 20.0; 0 
	1004	 4.175	 3.0	 3.0	 3.0	 1.035	 5.0	 1	 4.28	 4.07; 0 
	1024	 0.1	 0.0	 0.0	 0.0	 1.035	 0.0	 1	 0.1	 0.1; 0 
	1027	 24.28	 13.0	 13.0	 13.0	 1.035	 30.0	 1	 24.9	 23.66; 0 
	1028	 2.915	 3.0	 3.0	 3.0	 1.035	 4.0	 1	 2.99	 2.84; 0 
	1029	 24.28	 14.0	 14.0	 14.0	 1.035	 30.0	 1	 24.9	 23.66; 0 
	1053	 58.265	 26.5	 53.0	 0.0	 1.035	 72.0	 1	 59.76	 56.77; 0 
	1054	 29.135	 15.5	 31.0	 0.0	 1.035	 36.0	 1	 29.88	 28.39; 0 
	1105	 7.77	 10.0	 10.0	 10.0	 1.035	 10.0	 1	 7.97	 7.57; 0 
	1106	 22.335	 13.0	 13.0	 13.0	 1.035	 28.0	 1	 22.91	 21.76; 0 
	1107	 10.295	 3.0	 3.0	 3.0	 1.035	 13.0	 1	 10.56	 10.03; 0 
	1138	 43.7	 20.5	 41.0	 0.0	 1.035	 54.0	 1	 44.82	 42.58; 0 
	1140	 150.0	 56.0	 199.0	 -87.0	 1.035	 252.0	 1	 230.0	 70.0; 0 
	1141	 147.5	 50.5	 190.0	 -89.0	 1.035	 251.0	 1	 225.0	 70.0; 0 
	1175	 36.895	 20.0	 20.0	 20.0	 1.035	 45.0	 1	 37.84	 35.95; 0 
	1182	 80.0	 37.5	 125.0	 -50.0	 1.035	 133.0	 1	 120.0	 40.0; 0 
	1183	 80.0	 37.5	 125.0	 -50.0	 1.035	 133.0	 1	 120.0	 40.0; 0 
	1184	 80.0	 37.5	 125.0	 -50.0	 1.035	 133.0	 1	 120.0	 40.0; 0 
	1191	 103.895	 41.0	 129.0	 -47.0	 1.035	 128.0	 1	 106.56	 101.23; 0 
	1192	 165.0	 37.5	 125.0	 -50.0	 1.035	 123.0	 1	 250.0	 80.0; 0 
	1201	 97.1	 45.0	 90.0	 0.0	 1.035	 120.0	 1	 99.59	 94.61; 0 
	1202	 97.1	 45.0	 90.0	 0.0	 1.035	 120.0	 1	 99.59	 94.61; 0 
	1203	 97.1	 45.0	 90.0	 0.0	 1.035	 120.0	 1	 99.59	 94.61; 0 
	1232	 50.495	 20.5	 41.0	 0.0	 1.035	 62.0	 1	 51.79	 49.2; 0 
	1233	 14.565	 20.5	 41.0	 0.0	 1.035	 18.0	 1	 14.94	 14.19; 0 
	1244	 18.445	 20.0	 20.0	 20.0	 1.035	 23.0	 1	 18.92	 17.97; 0 
	1247	 15.53	 12.0	 12.0	 12.0	 1.035	 19.0	 1	 15.93	 15.13; 0 
	1250	 192.26	 75.5	 151.0	 0.0	 1.035	 237.0	 1	 197.19	 187.33; 0 
	1268	 0.49	 0.0	 0.0	 0.0	 1.035	 1.0	 1	 0.5	 0.48; 0 
	1316	 0.975	 0.0	 0.0	 0.0	 1.035	 1.0	 1	 1.0	 0.95; 0 
	1325	 1.355	 0.0	 0.0	 0.0	 1.035	 2.0	 1	 1.39	 1.32; 0 
	1349	 1.455	 0.0	 0.0	 0.0	 1.035	 2.0	 1	 1.49	 1.42; 0 
	1356	 0.975	 2.0	 2.0	 2.0	 1.035	 1.0	 1	 1.0	 0.95; 0 
	1359	 0.78	 1.0	 1.0	 1.0	 1.035	 1.0	 1	 0.8	 0.76; 0 
	1393	 12.43	 5.5	 11.0	 0.0	 1.035	 15.0	 1	 12.75	 12.11; 0 
	1403	 4.175	 1.0	 1.0	 1.0	 1.035	 5.0	 1	 4.28	 4.07; 0 
	1416	 225.5	 95.0	 180.0	 10.0	 1.035	 246.0	 1	 371.0	 80.0; 0 
	1417	 100.0	 62.5	 120.0	 5.0	 1.035	 123.0	 1	 120.0	 80.0; 0 
	1418	 12.5	 47.5	 90.0	 5.0	 1.035	 123.0	 1	 20.0	 5.0; 0 
	1426	 257.5	 47.5	 68.0	 27.0	 1.035	 106.0	 1	 495.0	 20.0; 0 
	1429	 0.195	 0.0	 0.0	 0.0	 1.035	 0.0	 1	 0.2	 0.19; 0 
	1469	 0.585	 0.0	 0.0	 0.0	 1.035	 1.0	 1	 0.6	 0.57; 0 
	1475	 2.04	 2.0	 2.0	 2.0	 1.035	 3.0	 1	 2.09	 1.99; 0 
	1504	 30.39	 2.0	 2.0	 2.0	 1.035	 37.0	 1	 31.17	 29.61; 0 
	1505	 47.58	 4.0	 4.0	 4.0	 1.035	 59.0	 1	 48.8	 46.36; 0 
	1514	 2.235	 1.0	 1.0	 1.0	 1.035	 3.0	 1	 2.29	 2.18; 0 
	1534	 0.295	 0.0	 0.0	 0.0	 1.035	 0.0	 1	 0.3	 0.29; 0 
	1536	 192.5	 50.5	 190.0	 -89.0	 1.035	 251.0	 1	 225.0	 160.0; 0 
	1537	 192.5	 54.0	 203.0	 -95.0	 1.035	 255.0	 1	 225.0	 160.0; 0 
	1538	 142.5	 50.5	 190.0	 -89.0	 1.035	 255.0	 1	 215.0	 70.0; 0 
	1542	 8.735	 3.0	 3.0	 3.0	 1.035	 11.0	 1	 8.96	 8.51; 0 
	1543	 1.17	 0.0	 0.0	 0.0	 1.035	 1.0	 1	 1.2	 1.14; 0 
	1550	 1.745	 1.0	 1.0	 1.0	 1.035	 2.0	 1	 1.79	 1.7; 0 
	1566	 53.4	 33.5	 47.0	 20.0	 1.035	 66.0	 1	 54.77	 52.03; 0 
	1587	 62.145	 27.0	 27.0	 27.0	 1.035	 77.0	 1	 63.74	 60.55; 0 
	1600	 16.995	 3.0	 3.0	 3.0	 1.035	 21.0	 1	 17.43	 16.56; 0 
	1602	 80.0	 45.0	 90.0	 0.0	 1.035	 144.0	 1	 120.0	 40.0; 0 
	1603	 80.0	 45.0	 90.0	 0.0	 1.035	 144.0	 1	 120.0	 40.0; 0 
	1609	 0.295	 0.0	 0.0	 0.0	 1.035	 0.0	 1	 0.3	 0.29; 0 
	1617	 1.95	 0.0	 0.0	 0.0	 1.035	 2.0	 1	 2.0	 1.9; 0 
	1620	 1.56	 0.0	 0.0	 0.0	 1.035	 2.0	 1	 1.6	 1.52; 0 
...
]; 0 

%% generator cost data
%	2	startup	shutdown	n	c(n-1)	...	c0
mpc.gencost = [
	2	 0.0	 0.0	 3	   0.000000	 117.950000	   0.000000;
	2	 0.0	 0.0	 3	   0.000000	  48.890000	   0.000000;
	2	 0.0	 0.0	 3	   0.000000	  98.470000	   0.000000;
	2	 0.0	 0.0	 3	   0.000000	 128.730000	   0.000000;
	2	 0.0	 0.0	 3	   0.000000	 158.230000	   0.000000;
	2	 0.0	 0.0	 3	   0.000000	 165.620000	   0.000000;
	2	 0.0	 0.0	 3	   0.000000	  71.220000	   0.000000;
	2	 0.0	 0.0	 3	   0.000000	 102.250000	   0.000000;
	2	 0.0	 0.0	 3	   0.000000	 147.830000	   0.000000;
	2	 0.0	 0.0	 3	   0.000000	  75.370000	   0.000000;
	2	 0.0	 0.0	 3	   0.000000	  86.010000	   0.000000;
	2	 0.0	 0.0	 3	   0.000000	   0.000000	   0.000000;
	2	 0.0	 0.0	 3	   0.000000	  68.740000	   0.000000;
	2	 0.0	 0.0	 3	   0.000000	  81.910000	   0.000000;
	2	 0.0	 0.0	 3	   0.000000	  81.880000	   0.000000;
	2	 0.0	 0.0	 3	   0.000000	  58.780000	   0.000000;
	2	 0.0	 0.0	 3	   0.000000	  85.570000	   0.000000;
	2	 0.0	 0.0	 3	   0.000000	 101.380000	   0.000000;
	2	 0.0	 0.0	 3	   0.000000	 122.430000	   0.000000;
	2	 0.0	 0.0	 3	   0.000000	  96.620000	   0.000000;
	2	 0.0	 0.0	 3	   0.000000	 106.730000	   0.000000;
	2	 0.0	 0.0	 3	   0.000000	   0.000000	   0.000000;
	2	 0.0	 0.0	 3	   0.000000	 151.940000	   0.000000;
	2	 0.0	 0.0	 3	   0.000000	 107.510000	   0.000000;
	2	 0.0	 0.0	 3	   0.000000	 103.530000	   0.000000;
	2	 0.0	 0.0	 3	   0.000000	   0.000000	   0.000000;
	2	 0.0	 0.0	 3	   0.000000	   0.000000	   0.000000;
	2	 0.0	 0.0	 3	   0.000000	 136.480000	   0.000000;
	2	 0.0	 0.0	 3	   0.000000	 157.460000	   0.000000;
	2	 0.0	 0.0	 3	   0.000000	  83.970000	   0.000000;
	2	 0.0	 0.0	 3	   0.000000	 170.740000	   0.000000;
	2	 0.0	 0.0	 3	   0.000000	  80.910000	   0.000000;
	2	 0.0	 0.0	 3	   0.000000	 147.600000	   0.000000;
	2	 0.0	 0.0	 3	   0.000000	 158.750000	   0.000000;
	2	 0.0	 0.0	 3	   0.000000	 146.940000	   0.000000;
	2	 0.0	 0.0	 3	   0.000000	  96.320000	   0.000000;
	2	 0.0	 0.0	 3	   0.000000	   0.000000	   0.000000;
	2	 0.0	 0.0	 3	   0.000000	   0.000000	   0.000000;
	2	 0.0	 0.0	 3	   0.000000	   0.000000	   0.000000;
	2	 0.0	 0.0	 3	   0.000000	   0.000000	   0.000000;
	2	 0.0	 0.0	 3	   0.000000	   0.000000	   0.000000;
	2	 0.0	 0.0	 3	   0.000000	   0.000000	   0.000000;
	2	 0.0	 0.0	 3	   0.000000	   0.000000	   0.000000;
	2	 0.0	 0.0	 3	   0.000000	   0.000000	   0.000000;
	2	 0.0	 0.0	 3	   0.000000	   0.000000	   0.000000;
	2	 0.0	 0.0	 3	   0.000000	   0.000000	   0.000000;
	2	 0.0	 0.0	 3	   0.000000	   0.000000	   0.000000;
	2	 0.0	 0.0	 3	   0.000000	   0.000000	   0.000000;
	2	 0.0	 0.0	 3	   0.000000	   0.000000	   0.000000;
	2	 0.0	 0.0	 3	   0.000000	   0.000000	   0.000000;
	2	 0.0	 0.0	 3	   0.000000	   0.000000	   0.000000;
	2	 0.0	 0.0	 3	   0.000000	   0.000000	   0.000000;
	2	 0.0	 0.0	 3	   0.000000	   0.000000	   0.000000;
	2	 0.0	 0.0	 3	   0.000000	   0.000000	   0.000000;
	2	 0.0	 0.0	 3	   0.000000	   0.000000	   0.000000;
	2	 0.0	 0.0	 3	   0.000000	   0.000000	   0.000000;
	2	 0.0	 0.0	 3	   0.000000	   0.000000	   0.000000;
	2	 0.0	 0.0	 3	   0.000000	   0.000000	   0.000000;
	2	 0.0	 0.0	 3	   0.000000	   0.000000	   0.000000;
	2	 0.0	 0.0	 3	   0.000000	   0.000000	   0.000000;
	2	 0.0	 0.0	 3	   0.000000	   0.000000	   0.000000;
	2	 0.0	 0.0	 3	   0.000000	   0.000000	   0.000000;
	2	 0.0	 0.0	 3	   0.000000	   0.000000	   0.000000;
	2	 0.0	 0.0	 3	   0.000000	   0.000000	   0.000000;
	2	 0.0	 0.0	 3	   0.000000	 134.980000	   0.000000;
	2	 0.0	 0.0	 3	   0.000000	   0.000000	   0.000000;
	2	 0.0	 0.0	 3	   0.000000	   0.000000	   0.000000;
	2	 0.0	 0.0	 3	   0.000000	   0.000000	   0.000000;
	2	 0.0	 0.0	 3	   0.000000	   0.000000	   0.000000;
	2	 0.0	 0.0	 3	   0.000000	   0.000000	   0.000000;
	2	 0.0	 0.0	 3	   0.000000	   0.000000	   0.000000;
	2	 0.0	 0.0	 3	   0.000000	   0.000000	   0.000000;
	2	 0.0	 0.0	 3	   0.000000	   0.000000	   0.000000;
	2	 0.0	 0.0	 3	   0.000000	   0.000000	   0.000000;
	2	 0.0	 0.0	 3	   0.000000	   0.000000	   0.000000;
	2	 0.0	 0.0	 3	   0.000000	   0.000000	   0.000000;
	2	 0.0	 0.0	 3	   0.000000	   0.000000	   0.000000;
	2	 0.0	 0.0	 3	   0.000000	   0.000000	   0.000000;
	2	 0.0	 0.0	 3	   0.000000	   0.000000	   0.000000;
	2	 0.0	 0.0	 3	   0.000000	   0.000000	   0.000000;
	2	 0.0	 0.0	 3	   0.000000	   0.000000	   0.000000;
	2	 0.0	 0.0	 3	   0.000000	   0.000000	   0.000000;
	2	 0.0	 0.0	 3	   0.000000	   0.000000	   0.000000;
	2	 0.0	 0.0	 3	   0.000000	   0.000000	   0.000000;
	2	 0.0	 0.0	 3	   0.000000	   0.000000	   0.000000;
	2	 0.0	 0.0	 3	   0.000000	   0.000000	   0.000000;
	2	 0.0	 0.0	 3	   0.000000	   0.000000	   0.000000;
	2	 0.0	 0.0	 3	   0.000000	   0.000000	   0.000000;
	2	 0.0	 0.0	 3	   0.000000	   0.000000	   0.000000;
	2	 0.0	 0.0	 3	   0.000000	   0.000000	   0.000000;
	2	 0.0	 0.0	 3	   0.000000	   0.000000	   0.000000;
	2	 0.0	 0.0	 3	   0.000000	 142.940000	   0.000000;
	2	 0.0	 0.0	 3	   0.000000	 128.220000	   0.000000;
	2	 0.0	 0.0	 3	   0.000000	   0.000000	   0.000000;
	2	 0.0	 0.0	 3	   0.000000	   0.000000	   0.000000;
	2	 0.0	 0.0	 3	   0.000000	   0.000000	   0.000000;
	2	 0.0	 0.0	 3	   0.000000	   0.000000	   0.000000;
	2	 0.0	 0.0	 3	   0.000000	   0.000000	   0.000000;
	2	 0.0	 0.0	 3	   0.000000	   0.000000	   0.000000;
	2	 0.0	 0.0	 3	   0.000000	   0.000000	   0.000000;
	2	 0.0	 0.0	 3	   0.000000	   0.000000	   0.000000;
	2	 0.0	 0.0	 3	   0.000000	 141.730000	   0.000000;
	2	 0.0	 0.0	 3	   0.000000	   0.000000	   0.000000;
	2	 0.0	 0.0	 3	   0.000000	   0.000000	   0.000000;
	2	 0.0	 0.0	 3	   0.000000	   0.000000	   0.000000;
	2	 0.0	 0.0	 3	   0.000000	   0.000000	   0.000000;
	2	 0.0	 0.0	 3	   0.000000	   0.000000	   0.000000;
	2	 0.0	 0.0	 3	   0.000000	   0.000000	   0.000000;
	2	 0.0	 0.0	 3	   0.000000	   0.000000	   0.000000;
	2	 0.0	 0.0	 3	   0.000000	   0.000000	   0.000000;
	2	 0.0	 0.0	 3	   0.000000	 100.820000	   0.000000;
	2	 0.0	 0.0	 3	   0.000000	 151.900000	   0.000000;
	2	 0.0	 0.0	 3	   0.000000	   0.000000	   0.000000;
	2	 0.0	 0.0	 3	   0.000000	   0.000000	   0.000000;
	2	 0.0	 0.0	 3	   0.000000	   0.000000	   0.000000;
	2	 0.0	 0.0	 3	   0.000000	   0.000000	   0.000000;
	2	 0.0	 0.0	 3	   0.000000	   0.000000	   0.000000;
	2	 0.0	 0.0	 3	   0.000000	   0.000000	   0.000000;
	2	 0.0	 0.0	 3	   0.000000	   0.000000	   0.000000;
	2	 0.0	 0.0	 3	   0.000000	 114.150000	   0.000000;
	2	 0.0	 0.0	 3	   0.000000	   0.000000	   0.000000;
	2	 0.0	 0.0	 3	   0.000000	   0.000000	   0.000000;
	2	 0.0	 0.0	 3	   0.000000	   0.000000	   0.000000;
	2	 0.0	 0.0	 3	   0.000000	   0.000000	   0.000000;
	2	 0.0	 0.0	 3	   0.000000	   0.000000	   0.000000;
	2	 0.0	 0.0	 3	   0.000000	   0.000000	   0.000000;
	2	 0.0	 0.0	 3	   0.000000	  87.950000	   0.000000;
	2	 0.0	 0.0	 3	   0.000000	 130.250000	   0.000000;
	2	 0.0	 0.0	 3	   0.000000	   0.000000	   0.000000;
	2	 0.0	 0.0	 3	   0.000000	   0.000000	   0.000000;
	2	 0.0	 0.0	 3	   0.000000	   0.000000	   0.000000;
	2	 0.0	 0.0	 3	   0.000000	   0.000000	   0.000000;
	2	 0.0	 0.0	 3	   0.000000	   0.000000	   0.000000;
	2	 0.0	 0.0	 3	   0.000000	   0.000000	   0.000000;
	2	 0.0	 0.0	 3	   0.000000	   0.000000	   0.000000;
	2	 0.0	 0.0	 3	   0.000000	   0.000000	   0.000000;
	2	 0.0	 0.0	 3	   0.000000	   0.000000	   0.000000;
	2	 0.0	 0.0	 3	   0.000000	 145.970000	   0.000000;
	2	 0.0	 0.0	 3	   0.000000	 137.580000	   0.000000;
	2	 0.0	 0.0	 3	   0.000000	 147.360000	   0.000000;
	2	 0.0	 0.0	 3	   0.000000	   0.000000	   0.000000;
	2	 0.0	 0.0	 3	   0.000000	   0.000000	   0.000000;
	2	 0.0	 0.0	 3	   0.000000	   0.000000	   0.000000;
	2	 0.0	 0.0	 3	   0.000000	   0.000000	   0.000000;
	2	 0.0	 0.0	 3	   0.000000	   0.000000	   0.000000;
	2	 0.0	 0.0	 3	   0.000000	   0.000000	   0.000000;
	2	 0.0	 0.0	 3	   0.000000	   0.000000	   0.000000;
	2	 0.0	 0.0	 3	   0.000000	   0.000000	   0.000000;
	2	 0.0	 0.0	 3	   0.000000	   0.000000	   0.000000;
	2	 0.0	 0.0	 3	   0.000000	   0.000000	   0.000000;
	2	 0.0	 0.0	 3	   0.000000	   0.000000	   0.000000;
	2	 0.0	 0.0	 3	   0.000000	  82.920000	   0.000000;
	2	 0.0	 0.0	 3	   0.000000	 133.590000	   0.000000;
	2	 0.0	 0.0	 3	   0.000000	   0.000000	   0.000000;
	2	 0.0	 0.0	 3	   0.000000	 152.950000	   0.000000;
	2	 0.0	 0.0	 3	   0.000000	  67.350000	   0.000000;
	2	 0.0	 0.0	 3	   0.000000	 134.930000	   0.000000;
	2	 0.0	 0.0	 3	   0.000000	   0.000000	   0.000000;
	2	 0.0	 0.0	 3	   0.000000	  61.320000	   0.000000;
	2	 0.0	 0.0	 3	   0.000000	   0.000000	   0.000000;
	2	 0.0	 0.0	 3	   0.000000	   0.000000	   0.000000;
	2	 0.0	 0.0	 3	   0.000000	   0.000000	   0.000000;
	2	 0.0	 0.0	 3	   0.000000	   0.000000	   0.000000;
	2	 0.0	 0.0	 3	   0.000000	   0.000000	   0.000000;
	2	 0.0	 0.0	 3	   0.000000	   0.000000	   0.000000;
	2	 0.0	 0.0	 3	   0.000000	   0.000000	   0.000000;
	2	 0.0	 0.0	 3	   0.000000	   0.000000	   0.000000;
	2	 0.0	 0.0	 3	   0.000000	   0.000000	   0.000000;
	2	 0.0	 0.0	 3	   0.000000	   0.000000	   0.000000;
	2	 0.0	 0.0	 3	   0.000000	   0.000000	   0.000000;
	2	 0.0	 0.0	 3	   0.000000	   0.000000	   0.000000;
	2	 0.0	 0.0	 3	   0.000000	   0.000000	   0.000000;
	2	 0.0	 0.0	 3	   0.000000	   0.000000	   0.000000;
	2	 0.0	 0.0	 3	   0.000000	   0.000000	   0.000000;
	2	 0.0	 0.0	 3	   0.000000	   0.000000	   0.000000;
	2	 0.0	 0.0	 3	   0.000000	  61.400000	   0.000000;
	2	 0.0	 0.0	 3	   0.000000	 114.990000	   0.000000;
	2	 0.0	 0.0	 3	   0.000000	 122.640000	   0.000000;
	2	 0.0	 0.0	 3	   0.000000	 118.840000	   0.000000;
	2	 0.0	 0.0	 3	   0.000000	   0.000000	   0.000000;
	2	 0.0	 0.0	 3	   0.000000	   0.000000	   0.000000;
	2	 0.0	 0.0	 3	   0.000000	   0.000000	   0.000000;
	2	 0.0	 0.0	 3	   0.000000	   0.000000	   0.000000;
	2	 0.0	 0.0	 3	   0.000000	   0.000000	   0.000000;
	2	 0.0	 0.0	 3	   0.000000	   0.000000	   0.000000;
	2	 0.0	 0.0	 3	   0.000000	   0.000000	   0.000000;
	2	 0.0	 0.0	 3	   0.000000	 143.830000	   0.000000;
	2	 0.0	 0.0	 3	   0.000000	  67.480000	   0.000000;
	2	 0.0	 0.0	 3	   0.000000	  88.000000	   0.000000;
	2	 0.0	 0.0	 3	   0.000000	   0.000000	   0.000000;
	2	 0.0	 0.0	 3	   0.000000	   0.000000	   0.000000;
	2	 0.0	 0.0	 3	   0.000000	   0.000000	   0.000000;
	2	 0.0	 0.0	 3	   0.000000	   0.000000	   0.000000;
	2	 0.0	 0.0	 3	   0.000000	   0.000000	   0.000000;
	2	 0.0	 0.0	 3	   0.000000	   0.000000	   0.000000;
	2	 0.0	 0.0	 3	   0.000000	 129.860000	   0.000000;
	2	 0.0	 0.0	 3	   0.000000	 108.160000	   0.000000;
	2	 0.0	 0.0	 3	   0.000000	   0.000000	   0.000000;
	2	 0.0	 0.0	 3	   0.000000	   0.000000	   0.000000;
	2	 0.0	 0.0	 3	   0.000000	   0.000000	   0.000000;
...
];

%% branch data
%	fbus	tbus	r	x	b	rateA	rateB	rateC	ratio	angle	status	angmin	angmax
mpc.branch = [
	16	 1	 0.00155	 0.01169	 0.0182	 160.0	 160.0	 160.0	 0.0	 0.0	 1	 -30.0	 30.0;
	355	 1	 0.00157	 0.06612	 0.0	 160.0	 160.0	 160.0	 1.0099	 0.0	 1	 -30.0	 30.0;
	17	 2	 0.00155	 0.01169	 0.0182	 160.0	 160.0	 160.0	 0.0	 0.0	 1	 -30.0	 30.0;
	354	 2	 0.00157	 0.06612	 0.0	 160.0	 160.0	 160.0	 1.022	 0.0	 1	 -30.0	 30.0;
	10	 3	 0.01068	 0.07895	 0.1226	 274.0	 274.0	 274.0	 0.0	 0.0	 1	 -30.0	 30.0;
	219	 3	 0.00165	 0.06736	 0.0	 160.0	 160.0	 160.0	 1.027	 0.0	 1	 -30.0	 30.0;
	220	 3	 0.00165	 0.06736	 0.0	 160.0	 160.0	 160.0	 0.9955	 0.0	 1	 -30.0	 30.0;
	7	 4	 0.01674	 0.09711	 0.14423	 377.0	 377.0	 377.0	 0.0	 0.0	 1	 -30.0	 30.0;
	11	 4	 0.00293	 0.01599	 0.02478	 335.0	 335.0	 335.0	 0.0	 0.0	 1	 -30.0	 30.0;
	14	 4	 0.00442	 0.03223	 0.04985	 464.0	 464.0	 464.0	 0.0	 0.0	 1	 -30.0	 30.0;
	16	 4	 0.00888	 0.06665	 0.08896	 377.0	 377.0	 377.0	 0.0	 0.0	 1	 -30.0	 30.0;
	22	 4	 0.00783	 0.043	 0.04962	 350.0	 350.0	 350.0	 0.0	 0.0	 1	 -30.0	 30.0;
	245	 4	 0.00165	 0.06901	 0.0	 160.0	 160.0	 160.0	 1.0594	 0.0	 1	 -30.0	 30.0;
	246	 4	 0.00165	 0.06901	 0.0	 160.0	 160.0	 160.0	 1.0448	 0.0	 1	 -30.0	 30.0;
	5	 6	 0.00064	 0.0305	 0.0	 400.0	 400.0	 400.0	 1.0435	 0.6	 1	 -30.0	 30.0;
	7	 5	 0.00525	 0.03988	 0.06195	 381.0	 381.0	 381.0	 0.0	 0.0	 1	 -30.0	 30.0;
	10	 5	 0.01459	 0.11219	 0.16553	 381.0	 381.0	 381.0	 0.0	 0.0	 1	 -30.0	 30.0;
	309	 5	 0.00165	 0.0686	 0.0	 160.0	 160.0	 160.0	 1.0646	 0.0	 1	 -30.0	 30.0;
	309	 5	 0.00165	 0.0686	 0.0	 160.0	 160.0	 160.0	 1.0523	 0.0	 1	 -30.0	 30.0;
	6	 8	 0.00112	 0.01329	 0.34125	 1316.0	 1316.0	 1316.0	 0.0	 0.0	 1	 -30.0	 30.0;
	6	 9	 0.00299	 0.03675	 0.9184	 1427.0	 1427.0	 1427.0	 0.0	 0.0	 1	 -30.0	 30.0;
	15	 6	 0.00298	 0.03417	 0.93504	 1427.0	 1427.0	 1427.0	 0.0	 0.0	 1	 -30.0	 30.0;
	31	 6	 0.0015	 0.01506	 0.4032	 1385.0	 1385.0	 1385.0	 0.0	 0.0	 1	 -30.0	 30.0;
	310	 6	 0.0015	 0.06188	 0.0	 250.0	 250.0	 250.0	 1.0613	 0.0	 1	 -30.0	 30.0;
	12	 7	 0.01211	 0.08742	 0.14017	 381.0	 381.0	 381.0	 0.0	 0.0	 1	 -30.0	 30.0;
	13	 7	 0.00205	 0.01326	 0.02243	 335.0	 335.0	 335.0	 0.0	 0.0	 1	 -30.0	 30.0;
	19	 7	 0.0057	 0.0407	 0.06021	 323.0	 323.0	 323.0	 0.0	 0.0	 1	 -30.0	 30.0;
	21	 7	 0.00093	 0.00651	 0.01113	 160.0	 160.0	 160.0	 0.0	 0.0	 1	 -30.0	 30.0;
	29	 7	 0.01269	 0.07498	 0.1302	 362.0	 362.0	 362.0	 0.0	 0.0	 1	 -30.0	 30.0;
	321	 7	 0.00041	 0.03368	 0.0	 250.0	 250.0	 250.0	 1.0323	 0.0	 1	 -30.0	 30.0;
	322	 7	 0.00165	 0.06775	 0.0	 160.0	 160.0	 160.0	 1.0569	 0.0	 1	 -30.0	 30.0;
	8	 18	 0.00336	 0.03977	 1.02163	 1316.0	 1316.0	 1316.0	 0.0	 0.0	 1	 -30.0	 30.0;
	332	 9	 0.00087	 0.05244	 -0.02144	 330.0	 330.0	 330.0	 1.0781	 0.0	 1	 -30.0	 30.0;
	171	 10	 0.01409	 0.10413	 0.15972	 464.0	 464.0	 464.0	 0.0	 0.0	 1	 -30.0	 30.0;
	346	 10	 0.00124	 0.06839	 0.0	 160.0	 160.0	 160.0	 1.0054	 0.0	 1	 -30.0	 30.0;
	347	 10	 0.00124	 0.06839	 0.0	 160.0	 160.0	 160.0	 1.024	 0.0	 1	 -30.0	 30.0;
	16	 11	 0.0057	 0.03952	 0.07553	 464.0	 464.0	 464.0	 0.0	 0.0	 1	 -30.0	 30.0;
	17	 11	 0.0057	 0.03952	 0.07553	 464.0	 464.0	 464.0	 0.0	 0.0	 1	 -30.0	 30.0;
	111	 11	 0.01068	 0.06196	 0.09496	 394.0	 394.0	 394.0	 0.0	 0.0	 1	 -30.0	 30.0;
	352	 11	 0.00165	 0.06901	 0.0	 160.0	 160.0	 160.0	 1.0412	 0.0	 1	 -30.0	 30.0;
	353	 11	 0.00165	 0.06901	 0.0	 160.0	 160.0	 160.0	 1.0559	 0.0	 1	 -30.0	 30.0;
	140	 12	 0.01465	 0.10589	 0.17085	 464.0	 464.0	 464.0	 0.0	 0.0	 1	 -30.0	 30.0;
	359	 12	 0.00155	 0.06612	 0.0	 160.0	 160.0	 160.0	 1.0395	 0.0	 1	 -30.0	 30.0;
	360	 12	 0.00157	 0.06612	 0.0	 160.0	 160.0	 160.0	 1.059	 0.0	 1	 -30.0	 30.0;
	29	 13	 0.01345	 0.08114	 0.14113	 339.0	 339.0	 339.0	 0.0	 0.0	 1	 -30.0	 30.0;
	365	 13	 0.00165	 0.06901	 0.0	 160.0	 160.0	 160.0	 1.0312	 0.0	 1	 -30.0	 30.0;
	366	 13	 0.00165	 0.06901	 0.0	 160.0	 160.0	 160.0	 0.9872	 0.0	 1	 -30.0	 30.0;
	17	 14	 0.00384	 0.02853	 0.04588	 464.0	 464.0	 464.0	 0.0	 0.0	 1	 -30.0	 30.0;
	367	 14	 0.00157	 0.06798	 0.0	 160.0	 160.0	 160.0	 1.0664	 0.0	 1	 -30.0	 30.0;
	368	 14	 0.00165	 0.06901	 0.0	 160.0	 160.0	 160.0	 1.0777	 0.0	 1	 -30.0	 30.0;
	18	 15	 0.00358	 0.04262	 1.0944	 1662.0	 1662.0	 1662.0	 0.0	 0.0	 1	 -30.0	 30.0;
	15	 165	 0.00207	 0.02474	 0.664	 831.0	 831.0	 831.0	 0.0	 0.0	 1	 -30.0	 30.0;
	374	 15	 0.0015	 0.06188	 0.0	 250.0	 250.0	 250.0	 1.1502	 0.0	 1	 -30.0	 30.0;
	16	 18	 0.00036	 0.02519	 0.0	 500.0	 500.0	 500.0	 1.0605	 0.0	 1	 -30.0	 30.0;
	16	 73	 0.00909	 0.0624	 0.11142	 464.0	 464.0	 464.0	 0.0	 0.0	 1	 -30.0	 30.0;
	17	 18	 0.00036	 0.02519	 0.0	 500.0	 500.0	 500.0	 1.0607	 0.0	 1	 -30.0	 30.0;
	17	 74	 0.00868	 0.06405	 0.09699	 464.0	 464.0	 464.0	 0.0	 0.0	 1	 -30.0	 30.0;
	20	 18	 0.00063	 0.00749	 0.39226	 1427.0	 1427.0	 1427.0	 0.0	 0.0	 1	 -30.0	 30.0;
	75	 18	 0.00219	 0.02369	 0.59584	 1434.0	 1434.0	 1434.0	 0.0	 0.0	 1	 -30.0	 30.0;
	18	 76	 0.00137	 0.01625	 0.41184	 1662.0	 1662.0	 1662.0	 0.0	 0.0	 1	 -30.0	 30.0;
	18	 101	 0.00231	 0.02769	 0.70144	 1662.0	 1662.0	 1662.0	 0.0	 0.0	 1	 -30.0	 30.0;
	124	 19	 0.01696	 0.12366	 0.19699	 464.0	 464.0	 464.0	 0.0	 0.0	 1	 -30.0	 30.0;
	425	 19	 0.00165	 0.06818	 0.0	 160.0	 160.0	 160.0	 1.0241	 0.0	 1	 -30.0	 30.0;
	67	 20	 0.00331	 0.03425	 0.85888	 831.0	 831.0	 831.0	 0.0	 0.0	 1	 -30.0	 30.0;
	447	 20	 0.00137	 0.06119	 -0.01504	 250.0	 250.0	 250.0	 1.0796	 0.0	 1	 -30.0	 30.0;
	448	 20	 0.00137	 0.06119	 -0.01504	 250.0	 250.0	 250.0	 1.0923	 0.0	 1	 -30.0	 30.0;
	502	 21	 0.00165	 0.07107	 0.0	 160.0	 160.0	 160.0	 0.9922	 0.0	 1	 -30.0	 30.0;
	112	 22	 0.00465	 0.02618	 0.02962	 362.0	 362.0	 362.0	 0.0	 0.0	 1	 -30.0	 30.0;
	526	 22	 0.00165	 0.06901	 0.0	 160.0	 160.0	 160.0	 1.0685	 0.0	 1	 -30.0	 30.0;
	527	 22	 0.00165	 0.06901	 0.0	 160.0	 160.0	 160.0	 1.0424	 0.0	 1	 -30.0	 30.0;
	37	 23	 0.01163	 0.07031	 0.1058	 394.0	 394.0	 394.0	 0.0	 0.0	 1	 -30.0	 30.0;
	46	 23	 0.00837	 0.04868	 0.07348	 457.0	 457.0	 457.0	 0.0	 0.0	 1	 -30.0	 30.0;
	53	 23	 0.01122	 0.06558	 0.09835	 274.0	 274.0	 274.0	 0.0	 0.0	 1	 -30.0	 30.0;
	540	 23	 0.0014	 0.0668	 0.0	 160.0	 160.0	 160.0	 1.0182	 0.0	 1	 -30.0	 30.0;
	54	 24	 0.00769	 0.05727	 0.08789	 160.0	 160.0	 160.0	 0.0	 0.0	 1	 -30.0	 30.0;
	545	 24	 0.00151	 0.06715	 0.0	 160.0	 160.0	 160.0	 1.0161	 0.0	 1	 -30.0	 30.0;
	41	 25	 0.00556	 0.04145	 0.0636	 274.0	 274.0	 274.0	 0.0	 0.0	 1	 -30.0	 30.0;
	53	 25	 0.00452	 0.03368	 0.05169	 464.0	 464.0	 464.0	 0.0	 0.0	 1	 -30.0	 30.0;
	54	 25	 0.00019	 0.0014	 0.00213	 464.0	 464.0	 464.0	 0.0	 0.0	 1	 -30.0	 30.0;
	564	 25	 0.00157	 0.07808	 0.0	 160.0	 160.0	 160.0	 1.0276	 0.0	 1	 -30.0	 30.0;
	38	 26	 0.00698	 0.05196	 0.07967	 160.0	 160.0	 160.0	 0.0	 0.0	 1	 -30.0	 30.0;
	568	 26	 0.00149	 0.06616	 0.0	 160.0	 160.0	 160.0	 1.013	 0.0	 1	 -30.0	 30.0;
	28	 27	 0.0	 0.0001	 0.0	 876.0	 876.0	 876.0	 0.0	 0.0	 1	 -30.0	 30.0;
	33	 27	 0.0024	 0.01494	 0.02253	 160.0	 160.0	 160.0	 0.0	 0.0	 1	 -30.0	 30.0;
	48	 27	 0.01213	 0.06215	 0.09371	 362.0	 362.0	 362.0	 0.0	 0.0	 1	 -30.0	 30.0;
	27	 74	 0.01116	 0.07231	 0.10367	 304.0	 304.0	 304.0	 0.0	 0.0	 1	 -30.0	 30.0;
	47	 28	 0.00248	 0.01798	 0.02759	 464.0	 464.0	 464.0	 0.0	 0.0	 1	 -30.0	 30.0;
	28	 88	 0.01488	 0.08161	 0.1148	 362.0	 362.0	 362.0	 0.0	 0.0	 1	 -30.0	 30.0;
	30	 29	 0.0	 0.0001	 0.0	 876.0	 876.0	 876.0	 0.0	 0.0	 1	 -30.0	 30.0;
	29	 32	 0.00034	 0.02097	 0.0	 500.0	 500.0	 500.0	 1.0619	 0.0	 1	 -30.0	 30.0;
	45	 29	 0.00545	 0.04021	 0.06699	 464.0	 464.0	 464.0	 0.0	 0.0	 1	 -30.0	 30.0;
	48	 29	 0.00574	 0.04283	 0.06573	 464.0	 464.0	 464.0	 0.0	 0.0	 1	 -30.0	 30.0;
	613	 29	 0.00157	 0.06775	 0.0	 160.0	 160.0	 160.0	 1.0016	 0.0	 1	 -30.0	 30.0;
	46	 30	 0.00545	 0.04021	 0.06699	 464.0	 464.0	 464.0	 0.0	 0.0	 1	 -30.0	 30.0;
	49	 30	 0.00707	 0.04541	 0.06931	 362.0	 362.0	 362.0	 0.0	 0.0	 1	 -30.0	 30.0;
	32	 31	 0.0	 0.0001	 0.0	 1593.0	 1593.0	 1593.0	 0.0	 0.0	 1	 -30.0	 30.0;
	39	 31	 0.00176	 0.02144	 0.57344	 1385.0	 1385.0	 1385.0	 0.0	 0.0	 1	 -30.0	 30.0;
	36	 32	 0.00167	 0.0189	 0.54176	 498.0	 498.0	 498.0	 0.0	 0.0	 1	 -30.0	 30.0;
	615	 33	 0.00163	 0.06946	 0.0	 160.0	 160.0	 160.0	 1.0291	 0.0	 1	 -30.0	 30.0;
	35	 34	 0.0	 0.0001	 0.0	 1593.0	 1593.0	 1593.0	 0.0	 0.0	 1	 -30.0	 30.0;
	34	 51	 0.00113	 0.01406	 0.37488	 1385.0	 1385.0	 1385.0	 0.0	 0.0	 1	 -30.0	 30.0;
	183	 34	 0.00188	 0.02287	 0.6432	 1385.0	 1385.0	 1385.0	 0.0	 0.0	 1	 -30.0	 30.0;
	183	 35	 0.00188	 0.02287	 0.6432	 1385.0	 1385.0	 1385.0	 0.0	 0.0	 1	 -30.0	 30.0;
	617	 35	 0.00135	 0.06052	 0.0	 250.0	 250.0	 250.0	 1.0654	 0.0	 1	 -30.0	 30.0;
	644	 36	 0.00135	 0.06052	 0.0	 250.0	 250.0	 250.0	 1.1003	 0.0	 1	 -30.0	 30.0;
	645	 36	 0.00153	 0.06156	 0.0	 250.0	 250.0	 250.0	 1.0971	 0.0	 1	 -30.0	 30.0;
	38	 37	 0.0	 0.0001	 0.0	 876.0	 876.0	 876.0	 0.0	 0.0	 1	 -30.0	 30.0;
	663	 37	 0.00157	 0.06616	 0.0	 160.0	 160.0	 160.0	 1.0009	 0.0	 1	 -30.0	 30.0;
	55	 38	 0.00316	 0.02076	 0.03146	 394.0	 394.0	 394.0	 0.0	 0.0	 1	 -30.0	 30.0;
	40	 39	 0.0	 0.0001	 0.0	 1593.0	 1593.0	 1593.0	 0.0	 0.0	 1	 -30.0	 30.0;
	682	 39	 0.00139	 0.05984	 0.0	 250.0	 250.0	 250.0	 1.0603	 0.0	 1	 -30.0	 30.0;
	44	 40	 0.00109	 0.01277	 0.34176	 1385.0	 1385.0	 1385.0	 0.0	 0.0	 1	 -30.0	 30.0;
	679	 40	 0.0014	 0.06235	 0.0	 250.0	 250.0	 250.0	 1.0996	 0.0	 1	 -30.0	 30.0;
	42	 41	 0.0	 0.0001	 0.0	 876.0	 876.0	 876.0	 0.0	 0.0	 1	 -30.0	 30.0;
	41	 43	 0.00081	 0.03	 0.0	 400.0	 400.0	 400.0	 1.0377	 0.0	 1	 -30.0	 30.0;
	80	 41	 0.00372	 0.0438	 0.10096	 609.0	 609.0	 609.0	 0.0	 0.0	 1	 -30.0	 30.0;
	47	 42	 0.00882	 0.06564	 0.10066	 274.0	 274.0	 274.0	 0.0	 0.0	 1	 -30.0	 30.0;
	54	 42	 0.00355	 0.02643	 0.04056	 392.0	 392.0	 392.0	 0.0	 0.0	 1	 -30.0	 30.0;
	689	 42	 0.00145	 0.06839	 0.0	 160.0	 160.0	 160.0	 1.0037	 0.0	 1	 -30.0	 30.0;
	44	 43	 0.0	 0.0001	 0.0	 1593.0	 1593.0	 1593.0	 0.0	 0.0	 1	 -30.0	 30.0;
	99	 43	 0.00169	 0.01994	 0.50624	 831.0	 831.0	 831.0	 0.0	 0.0	 1	 -30.0	 30.0;
	50	 44	 0.00094	 0.01097	 0.29376	 1662.0	 1662.0	 1662.0	 0.0	 0.0	 1	 -30.0	 30.0;
	46	 45	 0.0	 0.0001	 0.0	 876.0	 876.0	 876.0	 0.0	 0.0	 1	 -30.0	 30.0;
	49	 45	 0.01048	 0.06097	 0.09205	 394.0	 394.0	 394.0	 0.0	 0.0	 1	 -30.0	 30.0;
	706	 47	 0.00157	 0.06775	 0.0	 160.0	 160.0	 160.0	 1.0249	 0.0	 1	 -30.0	 30.0;
	707	 47	 0.00165	 0.06775	 0.0	 160.0	 160.0	 160.0	 1.0201	 0.0	 1	 -30.0	 30.0;
	49	 48	 0.0	 0.0001	 0.0	 876.0	 876.0	 876.0	 0.0	 0.0	 1	 -30.0	 30.0;
	717	 48	 0.00163	 0.06783	 0.0	 160.0	 160.0	 160.0	 1.023	 0.0	 1	 -30.0	 30.0;
	716	 49	 0.00143	 0.06831	 0.0	 160.0	 160.0	 160.0	 1.0238	 0.0	 1	 -30.0	 30.0;
	51	 50	 0.0	 0.0001	 0.0	 1593.0	 1593.0	 1593.0	 0.0	 0.0	 1	 -30.0	 30.0;
	98	 50	 0.0015	 0.01788	 0.4512	 831.0	 831.0	 831.0	 0.0	 0.0	 1	 -30.0	 30.0;
	100	 50	 0.00469	 0.05544	 1.4048	 831.0	 831.0	 831.0	 0.0	 0.0	 1	 -30.0	 30.0;
	726	 50	 0.00139	 0.0608	 0.0	 250.0	 250.0	 250.0	 1.0815	 0.0	 1	 -30.0	 30.0;
	727	 51	 0.0014	 0.06235	 0.0	 250.0	 250.0	 250.0	 1.0819	 0.0	 1	 -30.0	 30.0;
	53	 52	 0.00151	 0.00878	 0.01316	 160.0	 160.0	 160.0	 0.0	 0.0	 1	 -30.0	 30.0;
	754	 52	 0.00163	 0.06754	 0.0	 160.0	 160.0	 160.0	 1.0317	 0.0	 1	 -30.0	 30.0;
	181	 55	 0.01434	 0.08353	 0.12603	 394.0	 394.0	 394.0	 0.0	 0.0	 1	 -30.0	 30.0;
	778	 55	 0.00161	 0.06762	 0.0	 160.0	 160.0	 160.0	 0.9979	 0.0	 1	 -30.0	 30.0;
	74	 56	 0.00207	 0.01281	 0.02052	 394.0	 394.0	 394.0	 0.0	 0.0	 1	 -30.0	 30.0;
	796	 56	 0.00207	 0.06777	 -0.003	 160.0	 160.0	 160.0	 1.0389	 0.0	 1	 -30.0	 30.0;
	81	 57	 0.00083	 0.00496	 0.00726	 137.0	 137.0	 137.0	 0.0	 0.0	 1	 -30.0	 30.0;
	80	 58	 0.00083	 0.00496	 0.00726	 137.0	 137.0	 137.0	 0.0	 0.0	 1	 -30.0	 30.0;
	63	 59	 0.00207	 0.01405	 0.02265	 362.0	 362.0	 362.0	 0.0	 0.0	 1	 -30.0	 30.0;
	82	 59	 0.01116	 0.07045	 0.11606	 362.0	 362.0	 362.0	 0.0	 0.0	 1	 -30.0	 30.0;
	821	 59	 0.00165	 0.06798	 -0.00319	 160.0	 160.0	 160.0	 1.0178	 0.0	 1	 -30.0	 30.0;
	60	 85	 0.01095	 0.0593	 0.08441	 362.0	 362.0	 362.0	 0.0	 0.0	 1	 -30.0	 30.0;
	104	 60	 0.00599	 0.04091	 0.07212	 464.0	 464.0	 464.0	 0.0	 0.0	 1	 -30.0	 30.0;
	834	 60	 0.00145	 0.06921	 -0.00532	 160.0	 160.0	 160.0	 0.9936	 0.0	 1	 -30.0	 30.0;
	836	 60	 0.00372	 0.12583	 -0.00242	 100.0	 100.0	 100.0	 1.0154	 0.0	 1	 -30.0	 30.0;
	62	 61	 0.0	 0.0001	 0.0	 876.0	 876.0	 876.0	 0.0	 0.0	 1	 -30.0	 30.0;
	64	 61	 0.00517	 0.03843	 0.05876	 464.0	 464.0	 464.0	 0.0	 0.0	 1	 -30.0	 30.0;
	109	 61	 0.00083	 0.0062	 0.00958	 464.0	 464.0	 464.0	 0.0	 0.0	 1	 -30.0	 30.0;
	184	 61	 0.01219	 0.07066	 0.11742	 274.0	 274.0	 274.0	 0.0	 0.0	 1	 -30.0	 30.0;
	82	 62	 0.00165	 0.01095	 0.01955	 464.0	 464.0	 464.0	 0.0	 0.0	 1	 -30.0	 30.0;
	110	 62	 0.00083	 0.0062	 0.00949	 464.0	 464.0	 464.0	 0.0	 0.0	 1	 -30.0	 30.0;
	71	 63	 0.00475	 0.03079	 0.04879	 362.0	 362.0	 362.0	 0.0	 0.0	 1	 -30.0	 30.0;
	91	 63	 0.00455	 0.02769	 0.04608	 394.0	 394.0	 394.0	 0.0	 0.0	 1	 -30.0	 30.0;
	94	 63	 0.00186	 0.0126	 0.02236	 464.0	 464.0	 464.0	 0.0	 0.0	 1	 -30.0	 30.0;
	96	 63	 0.00826	 0.04236	 0.06118	 362.0	 362.0	 362.0	 0.0	 0.0	 1	 -30.0	 30.0;
	64	 69	 0.00434	 0.02975	 0.05266	 464.0	 464.0	 464.0	 0.0	 0.0	 1	 -30.0	 30.0;
	79	 64	 0.00351	 0.02438	 0.03998	 362.0	 362.0	 362.0	 0.0	 0.0	 1	 -30.0	 30.0;
	93	 64	 0.00186	 0.0126	 0.02236	 464.0	 464.0	 464.0	 0.0	 0.0	 1	 -30.0	 30.0;
	95	 64	 0.00826	 0.04236	 0.06118	 362.0	 362.0	 362.0	 0.0	 0.0	 1	 -30.0	 30.0;
	90	 65	 0.00785	 0.04132	 0.06389	 394.0	 394.0	 394.0	 0.0	 0.0	 1	 -30.0	 30.0;
	65	 91	 0.00227	 0.01446	 0.02585	 394.0	 394.0	 394.0	 0.0	 0.0	 1	 -30.0	 30.0;
	66	 67	 0.00031	 0.02094	 0.0	 500.0	 500.0	 500.0	 1.0616	 0.0	 1	 -30.0	 30.0;
	66	 68	 0.00248	 0.02355	 0.04763	 457.0	 457.0	 457.0	 0.0	 0.0	 1	 -30.0	 30.0;
	152	 66	 0.01033	 0.08285	 0.13959	 464.0	 464.0	 464.0	 0.0	 0.0	 1	 -30.0	 30.0;
	138	 67	 0.00194	 0.02056	 0.51584	 866.0	 866.0	 866.0	 0.0	 0.0	 1	 -30.0	 30.0;
	911	 67	 0.00156	 0.06269	 -0.00992	 250.0	 250.0	 250.0	 1.0656	 0.0	 1	 -30.0	 30.0;
	912	 67	 0.00156	 0.06269	 -0.00992	 250.0	 250.0	 250.0	 1.066	 0.0	 1	 -30.0	 30.0;
	68	 78	 0.00579	 0.04153	 0.06621	 464.0	 464.0	 464.0	 0.0	 0.0	 1	 -30.0	 30.0;
	978	 68	 0.00165	 0.06694	 -0.0031	 160.0	 160.0	 160.0	 1.0083	 0.0	 1	 -30.0	 30.0;
	979	 68	 0.00145	 0.06653	 -0.00319	 160.0	 160.0	 160.0	 1.006	 0.0	 1	 -30.0	 30.0;
	83	 69	 0.00145	 0.00992	 0.01762	 464.0	 464.0	 464.0	 0.0	 0.0	 1	 -30.0	 30.0;
	995	 69	 0.00145	 0.0655	 -0.00252	 160.0	 160.0	 160.0	 1.0107	 0.0	 1	 -30.0	 30.0;
	996	 69	 0.00145	 0.07045	 -0.00252	 160.0	 160.0	 160.0	 1.0025	 0.0	 1	 -30.0	 30.0;
	70	 73	 0.00145	 0.00971	 0.01626	 457.0	 457.0	 457.0	 0.0	 0.0	 1	 -30.0	 30.0;
	107	 70	 0.00062	 0.00413	 0.00697	 457.0	 457.0	 457.0	 0.0	 0.0	 1	 -30.0	 30.0;
	72	 71	 0.0	 0.0001	 0.0	 876.0	 876.0	 876.0	 0.0	 0.0	 1	 -30.0	 30.0;
	86	 71	 0.00165	 0.00971	 0.01423	 362.0	 362.0	 362.0	 0.0	 0.0	 1	 -30.0	 30.0;
	1059	 71	 0.00145	 0.06983	 -0.00232	 160.0	 160.0	 160.0	 1.0193	 0.0	 1	 -30.0	 30.0;
	1060	 71	 0.00165	 0.06777	 -0.00281	 160.0	 160.0	 160.0	 0.9558	 0.0	 1	 -30.0	 30.0;
	73	 75	 0.00075	 0.02444	 -0.00832	 330.0	 330.0	 330.0	 1.0544	 -1.7	 1	 -30.0	 30.0;
	87	 73	 0.00393	 0.02851	 0.04501	 464.0	 464.0	 464.0	 0.0	 0.0	 1	 -30.0	 30.0;
	74	 76	 0.00075	 0.02469	 -0.008	 330.0	 330.0	 330.0	 1.0606	 -1.7	 1	 -30.0	 30.0;
	74	 108	 0.00083	 0.00517	 0.00871	 464.0	 464.0	 464.0	 0.0	 0.0	 1	 -30.0	 30.0;
	76	 75	 0.0	 0.0001	 0.0	 1593.0	 1593.0	 1593.0	 0.0	 0.0	 1	 -30.0	 30.0;
	76	 105	 0.00244	 0.02756	 0.768	 845.0	 845.0	 845.0	 0.0	 0.0	 1	 -30.0	 30.0;
	84	 77	 0.00393	 0.02665	 0.04617	 457.0	 457.0	 457.0	 0.0	 0.0	 1	 -30.0	 30.0;
	85	 77	 0.00186	 0.01384	 0.02284	 464.0	 464.0	 464.0	 0.0	 0.0	 1	 -30.0	 30.0;
	1095	 77	 0.00165	 0.06694	 -0.0029	 160.0	 160.0	 160.0	 1.0162	 0.0	 1	 -30.0	 30.0;
	1096	 77	 0.00145	 0.06736	 -0.00658	 160.0	 160.0	 160.0	 1.0085	 0.0	 1	 -30.0	 30.0;
	78	 103	 0.00496	 0.03368	 0.05963	 464.0	 464.0	 464.0	 0.0	 0.0	 1	 -30.0	 30.0;
	1106	 78	 0.00145	 0.06839	 -0.00319	 160.0	 160.0	 160.0	 1.0272	 0.0	 1	 -30.0	 30.0;
	88	 79	 0.0031	 0.02335	 0.0362	 464.0	 464.0	 464.0	 0.0	 0.0	 1	 -30.0	 30.0;
	81	 80	 0.0	 0.0001	 0.0	 876.0	 876.0	 876.0	 0.0	 0.0	 1	 -30.0	 30.0;
	80	 96	 0.01591	 0.0876	 0.11684	 362.0	 362.0	 362.0	 0.0	 0.0	 1	 -30.0	 30.0;
	1114	 80	 0.00165	 0.06694	 -0.00232	 160.0	 160.0	 160.0	 0.9876	 0.0	 1	 -30.0	 30.0;
	93	 81	 0.01777	 0.11674	 0.16359	 362.0	 362.0	 362.0	 0.0	 0.0	 1	 -30.0	 30.0;
...
];

% INFO    : === Translation Options ===
% INFO    : Phase Angle Bound:           30.0 (deg.)
% INFO    : Setting Flat Start
% INFO    : 
% INFO    : === Generator Bounds Update Notes ===
% WARNING : Gen at bus 180 inf reactive power bound: Qmin -inf, Qmax inf -> Qmin -50.5632, Qmax 50.5632
% WARNING : Gen at bus 181 inf reactive power bound: Qmin -inf, Qmax inf -> Qmin -78.4518, Qmax 78.4518
% WARNING : Gen at bus 182 inf reactive power bound: Qmin -inf, Qmax inf -> Qmin -145.6185, Qmax 145.6185
% WARNING : Gen at bus 184 inf reactive power bound: Qmin -inf, Qmax inf -> Qmin -208.7361, Qmax 208.7361
% WARNING : Gen at bus 185 inf reactive power bound: Qmin -inf, Qmax inf -> Qmin -36.699, Qmax 36.699
...